<?xml version="1.0" encoding="UTF-8"?>

<!-- generated on Thu Feb 13 12:38:04 2014 by SUMO duarouter Version 0.18.0
<?xml version="1.0" encoding="UTF-8"?>

<configuration xmlns:xsi="http://www.w3.org/2001/XMLSchema-instance" xsi:noNamespaceSchemaLocation="http://sumo.sf.net/xsd/duarouterConfiguration.xsd">

    <input>
        <net-file value="simpleT.net.xml"/>
        <trip-files value="experimentos/simpleT.p0.1.6.trips.xml"/>
    </input>

    <output>
        <output-file value="experimentos/simpleT.p0.1.6.rou.xml"/>
    </output>

    <processing>
        <ignore-errors value="true"/>
    </processing>

    <random_number>
        <random value="true"/>
    </random_number>

</configuration>
-->

<routes xmlns:xsi="http://www.w3.org/2001/XMLSchema-instance" xsi:noNamespaceSchemaLocation="http://sumo.sf.net/xsd/routes_file.xsd">
    <vehicle id="2" depart="0.20">
        <route edges="7:3 3:1"/>
    </vehicle>
    <vehicle id="4" depart="0.40">
        <route edges="0:1 1:5"/>
    </vehicle>
    <vehicle id="5" depart="0.50">
        <route edges="0:1 1:3 3:7"/>
    </vehicle>
    <vehicle id="9" depart="0.90">
        <route edges="3:1 1:0 0:2"/>
    </vehicle>
    <vehicle id="11" depart="1.10">
        <route edges="0:1 1:3"/>
    </vehicle>
    <vehicle id="13" depart="1.30">
        <route edges="6:5 5:1 1:3"/>
    </vehicle>
    <vehicle id="16" depart="1.60">
        <route edges="0:1 1:5 5:6"/>
    </vehicle>
    <vehicle id="17" depart="1.70">
        <route edges="0:1 1:3 3:7"/>
    </vehicle>
    <vehicle id="18" depart="1.80">
        <route edges="6:5 5:1 1:0 0:2"/>
    </vehicle>
    <vehicle id="19" depart="1.90">
        <route edges="0:1"/>
    </vehicle>
    <vehicle id="20" depart="2.00">
        <route edges="7:3 3:1"/>
    </vehicle>
    <vehicle id="21" depart="2.10">
        <route edges="7:3 3:1 1:0 0:2"/>
    </vehicle>
    <vehicle id="28" depart="2.80">
        <route edges="2:0 0:1 1:3 3:7"/>
    </vehicle>
    <vehicle id="34" depart="3.40">
        <route edges="1:5 5:6"/>
    </vehicle>
    <vehicle id="36" depart="3.60">
        <route edges="7:3 3:1 1:5 5:6"/>
    </vehicle>
    <vehicle id="37" depart="3.70">
        <route edges="7:3 3:1"/>
    </vehicle>
    <vehicle id="40" depart="4.00">
        <route edges="7:3 3:1 1:0 0:2"/>
    </vehicle>
    <vehicle id="41" depart="4.10">
        <route edges="7:3 3:1 1:0 0:2"/>
    </vehicle>
    <vehicle id="42" depart="4.20">
        <route edges="0:1 1:3 3:7"/>
    </vehicle>
    <vehicle id="52" depart="5.20">
        <route edges="3:1 1:0 0:2"/>
    </vehicle>
    <vehicle id="57" depart="5.70">
        <route edges="2:0 0:1 1:5"/>
    </vehicle>
    <vehicle id="61" depart="6.10">
        <route edges="7:3 3:1 1:0"/>
    </vehicle>
    <vehicle id="62" depart="6.20">
        <route edges="7:3 3:1 1:5 5:6"/>
    </vehicle>
    <vehicle id="63" depart="6.30">
        <route edges="1:0"/>
    </vehicle>
    <vehicle id="64" depart="6.40">
        <route edges="1:3 3:7"/>
    </vehicle>
    <vehicle id="65" depart="6.50">
        <route edges="7:3 3:1 1:0"/>
    </vehicle>
    <vehicle id="66" depart="6.60">
        <route edges="1:0 0:2"/>
    </vehicle>
    <vehicle id="68" depart="6.80">
        <route edges="3:1 1:0"/>
    </vehicle>
    <vehicle id="72" depart="7.20">
        <route edges="5:1 1:0 0:2"/>
    </vehicle>
    <vehicle id="73" depart="7.30">
        <route edges="0:1 1:5"/>
    </vehicle>
    <vehicle id="76" depart="7.60">
        <route edges="5:1 1:0"/>
    </vehicle>
    <vehicle id="77" depart="7.70">
        <route edges="2:0 0:1 1:3 3:7"/>
    </vehicle>
    <vehicle id="78" depart="7.80">
        <route edges="2:0 0:1"/>
    </vehicle>
    <vehicle id="79" depart="7.90">
        <route edges="3:1 1:0 0:2"/>
    </vehicle>
    <vehicle id="81" depart="8.10">
        <route edges="6:5 5:1 1:0"/>
    </vehicle>
    <vehicle id="82" depart="8.20">
        <route edges="2:0 0:1 1:5 5:6"/>
    </vehicle>
    <vehicle id="85" depart="8.50">
        <route edges="5:1 1:3 3:7"/>
    </vehicle>
    <vehicle id="86" depart="8.60">
        <route edges="7:3 3:1"/>
    </vehicle>
    <vehicle id="87" depart="8.70">
        <route edges="6:5 5:1 1:0 0:2"/>
    </vehicle>
    <vehicle id="88" depart="8.80">
        <route edges="7:3 3:1 1:0 0:2"/>
    </vehicle>
    <vehicle id="89" depart="8.90">
        <route edges="6:5 5:1 1:3 3:7"/>
    </vehicle>
    <vehicle id="90" depart="9.00">
        <route edges="2:0 0:1 1:3 3:7"/>
    </vehicle>
    <vehicle id="91" depart="9.10">
        <route edges="2:0 0:1 1:5 5:6"/>
    </vehicle>
    <vehicle id="95" depart="9.50">
        <route edges="7:3 3:1 1:0 0:2"/>
    </vehicle>
    <vehicle id="96" depart="9.60">
        <route edges="7:3 3:1 1:5"/>
    </vehicle>
    <vehicle id="100" depart="10.00">
        <route edges="2:0 0:1 1:5 5:6"/>
    </vehicle>
    <vehicle id="101" depart="10.10">
        <route edges="3:1 1:5 5:6"/>
    </vehicle>
    <vehicle id="102" depart="10.20">
        <route edges="1:3 3:7"/>
    </vehicle>
    <vehicle id="105" depart="10.50">
        <route edges="6:5 5:1 1:3 3:7"/>
    </vehicle>
    <vehicle id="106" depart="10.60">
        <route edges="2:0 0:1"/>
    </vehicle>
    <vehicle id="109" depart="10.90">
        <route edges="2:0 0:1 1:3 3:7"/>
    </vehicle>
    <vehicle id="111" depart="11.10">
        <route edges="6:5 5:1 1:3 3:7"/>
    </vehicle>
    <vehicle id="114" depart="11.40">
        <route edges="5:1 1:0 0:2"/>
    </vehicle>
    <vehicle id="116" depart="11.60">
        <route edges="5:1 1:0 0:2"/>
    </vehicle>
    <vehicle id="122" depart="12.20">
        <route edges="5:1 1:0"/>
    </vehicle>
    <vehicle id="123" depart="12.30">
        <route edges="7:3 3:1 1:0 0:2"/>
    </vehicle>
    <vehicle id="124" depart="12.40">
        <route edges="7:3 3:1 1:0 0:2"/>
    </vehicle>
    <vehicle id="125" depart="12.50">
        <route edges="6:5 5:1 1:0"/>
    </vehicle>
    <vehicle id="126" depart="12.60">
        <route edges="3:1 1:0"/>
    </vehicle>
    <vehicle id="127" depart="12.70">
        <route edges="7:3 3:1 1:0 0:2"/>
    </vehicle>
    <vehicle id="130" depart="13.00">
        <route edges="1:3"/>
    </vehicle>
    <vehicle id="131" depart="13.10">
        <route edges="7:3 3:1"/>
    </vehicle>
    <vehicle id="132" depart="13.20">
        <route edges="5:1 1:3"/>
    </vehicle>
    <vehicle id="133" depart="13.30">
        <route edges="0:1"/>
    </vehicle>
    <vehicle id="135" depart="13.50">
        <route edges="2:0 0:1 1:3"/>
    </vehicle>
    <vehicle id="136" depart="13.60">
        <route edges="3:1 1:0"/>
    </vehicle>
    <vehicle id="137" depart="13.70">
        <route edges="7:3 3:1 1:0 0:2"/>
    </vehicle>
    <vehicle id="139" depart="13.90">
        <route edges="7:3 3:1"/>
    </vehicle>
    <vehicle id="140" depart="14.00">
        <route edges="5:1 1:3"/>
    </vehicle>
    <vehicle id="141" depart="14.10">
        <route edges="0:1 1:5"/>
    </vehicle>
    <vehicle id="142" depart="14.20">
        <route edges="1:0 0:2"/>
    </vehicle>
    <vehicle id="143" depart="14.30">
        <route edges="7:3 3:1"/>
    </vehicle>
    <vehicle id="147" depart="14.70">
        <route edges="7:3 3:1 1:0"/>
    </vehicle>
    <vehicle id="148" depart="14.80">
        <route edges="0:1"/>
    </vehicle>
    <vehicle id="153" depart="15.30">
        <route edges="0:1 1:3 3:7"/>
    </vehicle>
    <vehicle id="154" depart="15.40">
        <route edges="7:3 3:1 1:0 0:2"/>
    </vehicle>
    <vehicle id="156" depart="15.60">
        <route edges="2:0 0:1 1:3 3:7"/>
    </vehicle>
    <vehicle id="159" depart="15.90">
        <route edges="5:1 1:3"/>
    </vehicle>
    <vehicle id="160" depart="16.00">
        <route edges="7:3 3:1 1:5"/>
    </vehicle>
    <vehicle id="161" depart="16.10">
        <route edges="7:3 3:1"/>
    </vehicle>
    <vehicle id="162" depart="16.20">
        <route edges="2:0 0:1 1:3 3:7"/>
    </vehicle>
    <vehicle id="164" depart="16.40">
        <route edges="0:1 1:3 3:7"/>
    </vehicle>
    <vehicle id="165" depart="16.50">
        <route edges="6:5 5:1 1:3"/>
    </vehicle>
    <vehicle id="167" depart="16.70">
        <route edges="0:1 1:3"/>
    </vehicle>
    <vehicle id="169" depart="16.90">
        <route edges="0:1 1:3 3:7"/>
    </vehicle>
    <vehicle id="170" depart="17.00">
        <route edges="2:0 0:1 1:5 5:6"/>
    </vehicle>
    <vehicle id="171" depart="17.10">
        <route edges="7:3 3:1 1:5 5:6"/>
    </vehicle>
    <vehicle id="175" depart="17.50">
        <route edges="7:3 3:1 1:0"/>
    </vehicle>
    <vehicle id="177" depart="17.70">
        <route edges="2:0 0:1"/>
    </vehicle>
    <vehicle id="178" depart="17.80">
        <route edges="2:0 0:1 1:3"/>
    </vehicle>
    <vehicle id="180" depart="18.00">
        <route edges="0:1 1:5"/>
    </vehicle>
    <vehicle id="181" depart="18.10">
        <route edges="2:0 0:1 1:3 3:7"/>
    </vehicle>
    <vehicle id="184" depart="18.40">
        <route edges="0:1 1:3 3:7"/>
    </vehicle>
    <vehicle id="186" depart="18.60">
        <route edges="1:0 0:2"/>
    </vehicle>
    <vehicle id="188" depart="18.80">
        <route edges="2:0 0:1 1:3"/>
    </vehicle>
    <vehicle id="189" depart="18.90">
        <route edges="1:3 3:7"/>
    </vehicle>
    <vehicle id="190" depart="19.00">
        <route edges="1:5"/>
    </vehicle>
    <vehicle id="191" depart="19.10">
        <route edges="2:0 0:1 1:5"/>
    </vehicle>
    <vehicle id="193" depart="19.30">
        <route edges="2:0 0:1 1:3 3:7"/>
    </vehicle>
    <vehicle id="199" depart="19.90">
        <route edges="6:5 5:1 1:0 0:2"/>
    </vehicle>
    <vehicle id="202" depart="20.20">
        <route edges="7:3 3:1 1:5 5:6"/>
    </vehicle>
    <vehicle id="203" depart="20.30">
        <route edges="5:1 1:3"/>
    </vehicle>
    <vehicle id="204" depart="20.40">
        <route edges="0:1"/>
    </vehicle>
    <vehicle id="205" depart="20.50">
        <route edges="0:1 1:3"/>
    </vehicle>
    <vehicle id="206" depart="20.60">
        <route edges="7:3 3:1 1:0 0:2"/>
    </vehicle>
    <vehicle id="207" depart="20.70">
        <route edges="7:3 3:1"/>
    </vehicle>
    <vehicle id="208" depart="20.80">
        <route edges="1:3 3:7"/>
    </vehicle>
    <vehicle id="209" depart="20.90">
        <route edges="7:3 3:1 1:5 5:6"/>
    </vehicle>
    <vehicle id="211" depart="21.10">
        <route edges="7:3 3:1 1:5"/>
    </vehicle>
    <vehicle id="212" depart="21.20">
        <route edges="1:0 0:2"/>
    </vehicle>
    <vehicle id="215" depart="21.50">
        <route edges="7:3 3:1"/>
    </vehicle>
    <vehicle id="217" depart="21.70">
        <route edges="6:5 5:1 1:0 0:2"/>
    </vehicle>
    <vehicle id="219" depart="21.90">
        <route edges="6:5 5:1 1:0 0:2"/>
    </vehicle>
    <vehicle id="221" depart="22.10">
        <route edges="5:1 1:3"/>
    </vehicle>
    <vehicle id="222" depart="22.20">
        <route edges="6:5 5:1"/>
    </vehicle>
    <vehicle id="223" depart="22.30">
        <route edges="7:3 3:1"/>
    </vehicle>
    <vehicle id="225" depart="22.50">
        <route edges="3:1 1:0 0:2"/>
    </vehicle>
    <vehicle id="227" depart="22.70">
        <route edges="0:1 1:3"/>
    </vehicle>
    <vehicle id="229" depart="22.90">
        <route edges="0:1 1:3"/>
    </vehicle>
    <vehicle id="230" depart="23.00">
        <route edges="1:0 0:2"/>
    </vehicle>
    <vehicle id="231" depart="23.10">
        <route edges="0:1 1:3 3:7"/>
    </vehicle>
    <vehicle id="232" depart="23.20">
        <route edges="1:0"/>
    </vehicle>
    <vehicle id="234" depart="23.40">
        <route edges="7:3 3:1 1:5"/>
    </vehicle>
    <vehicle id="237" depart="23.70">
        <route edges="6:5 5:1 1:3 3:7"/>
    </vehicle>
    <vehicle id="239" depart="23.90">
        <route edges="7:3 3:1 1:0 0:2"/>
    </vehicle>
    <vehicle id="241" depart="24.10">
        <route edges="6:5 5:1 1:0 0:2"/>
    </vehicle>
    <vehicle id="242" depart="24.20">
        <route edges="5:1 1:3"/>
    </vehicle>
    <vehicle id="244" depart="24.40">
        <route edges="5:1 1:3 3:7"/>
    </vehicle>
    <vehicle id="248" depart="24.80">
        <route edges="7:3 3:1"/>
    </vehicle>
    <vehicle id="250" depart="25.00">
        <route edges="7:3 3:1 1:5"/>
    </vehicle>
    <vehicle id="253" depart="25.30">
        <route edges="0:1"/>
    </vehicle>
    <vehicle id="255" depart="25.50">
        <route edges="1:0 0:2"/>
    </vehicle>
    <vehicle id="259" depart="25.90">
        <route edges="0:1"/>
    </vehicle>
    <vehicle id="260" depart="26.00">
        <route edges="7:3 3:1 1:5 5:6"/>
    </vehicle>
    <vehicle id="261" depart="26.10">
        <route edges="1:3"/>
    </vehicle>
    <vehicle id="262" depart="26.20">
        <route edges="5:1 1:3 3:7"/>
    </vehicle>
    <vehicle id="263" depart="26.30">
        <route edges="3:1 1:0"/>
    </vehicle>
    <vehicle id="264" depart="26.40">
        <route edges="7:3 3:1 1:0 0:2"/>
    </vehicle>
    <vehicle id="266" depart="26.60">
        <route edges="3:1 1:0 0:2"/>
    </vehicle>
    <vehicle id="267" depart="26.70">
        <route edges="7:3 3:1 1:0"/>
    </vehicle>
    <vehicle id="270" depart="27.00">
        <route edges="6:5 5:1 1:0"/>
    </vehicle>
    <vehicle id="273" depart="27.30">
        <route edges="1:0 0:2"/>
    </vehicle>
    <vehicle id="275" depart="27.50">
        <route edges="0:1"/>
    </vehicle>
    <vehicle id="276" depart="27.60">
        <route edges="2:0 0:1 1:3 3:7"/>
    </vehicle>
    <vehicle id="279" depart="27.90">
        <route edges="5:1"/>
    </vehicle>
    <vehicle id="280" depart="28.00">
        <route edges="6:5 5:1 1:3"/>
    </vehicle>
    <vehicle id="282" depart="28.20">
        <route edges="7:3 3:1 1:0"/>
    </vehicle>
    <vehicle id="286" depart="28.60">
        <route edges="1:0"/>
    </vehicle>
    <vehicle id="288" depart="28.80">
        <route edges="2:0 0:1"/>
    </vehicle>
    <vehicle id="291" depart="29.10">
        <route edges="7:3 3:1 1:5 5:6"/>
    </vehicle>
    <vehicle id="296" depart="29.60">
        <route edges="2:0 0:1 1:5 5:6"/>
    </vehicle>
    <vehicle id="297" depart="29.70">
        <route edges="3:1"/>
    </vehicle>
    <vehicle id="298" depart="29.80">
        <route edges="6:5 5:1 1:3 3:7"/>
    </vehicle>
    <vehicle id="299" depart="29.90">
        <route edges="0:1 1:5"/>
    </vehicle>
    <vehicle id="300" depart="30.00">
        <route edges="6:5 5:1 1:3 3:7"/>
    </vehicle>
    <vehicle id="301" depart="30.10">
        <route edges="2:0 0:1 1:3 3:7"/>
    </vehicle>
    <vehicle id="302" depart="30.20">
        <route edges="7:3 3:1 1:0"/>
    </vehicle>
    <vehicle id="304" depart="30.40">
        <route edges="0:1 1:3"/>
    </vehicle>
    <vehicle id="317" depart="31.70">
        <route edges="7:3 3:1"/>
    </vehicle>
    <vehicle id="318" depart="31.80">
        <route edges="1:0 0:2"/>
    </vehicle>
    <vehicle id="320" depart="32.00">
        <route edges="2:0 0:1 1:3 3:7"/>
    </vehicle>
    <vehicle id="323" depart="32.30">
        <route edges="2:0 0:1 1:3 3:7"/>
    </vehicle>
    <vehicle id="324" depart="32.40">
        <route edges="6:5 5:1 1:0 0:2"/>
    </vehicle>
    <vehicle id="325" depart="32.50">
        <route edges="6:5 5:1 1:3"/>
    </vehicle>
    <vehicle id="328" depart="32.80">
        <route edges="3:1 1:0 0:2"/>
    </vehicle>
    <vehicle id="329" depart="32.90">
        <route edges="2:0 0:1"/>
    </vehicle>
    <vehicle id="330" depart="33.00">
        <route edges="2:0 0:1 1:3 3:7"/>
    </vehicle>
    <vehicle id="339" depart="33.90">
        <route edges="0:1 1:5"/>
    </vehicle>
    <vehicle id="343" depart="34.30">
        <route edges="2:0 0:1 1:3 3:7"/>
    </vehicle>
    <vehicle id="347" depart="34.70">
        <route edges="7:3 3:1 1:0 0:2"/>
    </vehicle>
    <vehicle id="348" depart="34.80">
        <route edges="0:1 1:3 3:7"/>
    </vehicle>
    <vehicle id="349" depart="34.90">
        <route edges="3:1"/>
    </vehicle>
    <vehicle id="350" depart="35.00">
        <route edges="0:1 1:5 5:6"/>
    </vehicle>
    <vehicle id="352" depart="35.20">
        <route edges="0:1 1:3 3:7"/>
    </vehicle>
    <vehicle id="355" depart="35.50">
        <route edges="7:3 3:1"/>
    </vehicle>
    <vehicle id="356" depart="35.60">
        <route edges="6:5 5:1 1:3 3:7"/>
    </vehicle>
    <vehicle id="357" depart="35.70">
        <route edges="5:1"/>
    </vehicle>
    <vehicle id="359" depart="35.90">
        <route edges="7:3 3:1 1:0 0:2"/>
    </vehicle>
    <vehicle id="360" depart="36.00">
        <route edges="6:5 5:1 1:0"/>
    </vehicle>
    <vehicle id="361" depart="36.10">
        <route edges="5:1 1:3 3:7"/>
    </vehicle>
    <vehicle id="365" depart="36.50">
        <route edges="2:0 0:1 1:3 3:7"/>
    </vehicle>
    <vehicle id="367" depart="36.70">
        <route edges="2:0 0:1 1:5 5:6"/>
    </vehicle>
    <vehicle id="368" depart="36.80">
        <route edges="0:1 1:5 5:6"/>
    </vehicle>
    <vehicle id="373" depart="37.30">
        <route edges="7:3 3:1 1:0 0:2"/>
    </vehicle>
    <vehicle id="375" depart="37.50">
        <route edges="3:1 1:0 0:2"/>
    </vehicle>
    <vehicle id="381" depart="38.10">
        <route edges="0:1 1:3 3:7"/>
    </vehicle>
    <vehicle id="382" depart="38.20">
        <route edges="6:5 5:1 1:0 0:2"/>
    </vehicle>
    <vehicle id="383" depart="38.30">
        <route edges="2:0 0:1 1:3 3:7"/>
    </vehicle>
    <vehicle id="384" depart="38.40">
        <route edges="2:0 0:1 1:3 3:7"/>
    </vehicle>
    <vehicle id="387" depart="38.70">
        <route edges="2:0 0:1 1:3 3:7"/>
    </vehicle>
    <vehicle id="388" depart="38.80">
        <route edges="2:0 0:1"/>
    </vehicle>
    <vehicle id="389" depart="38.90">
        <route edges="2:0 0:1"/>
    </vehicle>
    <vehicle id="392" depart="39.20">
        <route edges="2:0 0:1"/>
    </vehicle>
    <vehicle id="394" depart="39.40">
        <route edges="1:5 5:6"/>
    </vehicle>
    <vehicle id="395" depart="39.50">
        <route edges="2:0 0:1 1:5"/>
    </vehicle>
    <vehicle id="404" depart="40.40">
        <route edges="2:0 0:1 1:3 3:7"/>
    </vehicle>
    <vehicle id="405" depart="40.50">
        <route edges="7:3 3:1 1:5 5:6"/>
    </vehicle>
    <vehicle id="406" depart="40.60">
        <route edges="0:1 1:3 3:7"/>
    </vehicle>
    <vehicle id="407" depart="40.70">
        <route edges="3:1 1:0 0:2"/>
    </vehicle>
    <vehicle id="409" depart="40.90">
        <route edges="2:0 0:1 1:3 3:7"/>
    </vehicle>
    <vehicle id="410" depart="41.00">
        <route edges="1:3 3:7"/>
    </vehicle>
    <vehicle id="412" depart="41.20">
        <route edges="1:5 5:6"/>
    </vehicle>
    <vehicle id="413" depart="41.30">
        <route edges="1:3"/>
    </vehicle>
    <vehicle id="416" depart="41.60">
        <route edges="1:0 0:2"/>
    </vehicle>
    <vehicle id="417" depart="41.70">
        <route edges="3:1 1:0 0:2"/>
    </vehicle>
    <vehicle id="418" depart="41.80">
        <route edges="5:1 1:3 3:7"/>
    </vehicle>
    <vehicle id="420" depart="42.00">
        <route edges="7:3 3:1"/>
    </vehicle>
    <vehicle id="421" depart="42.10">
        <route edges="2:0 0:1 1:3 3:7"/>
    </vehicle>
    <vehicle id="422" depart="42.20">
        <route edges="1:0 0:2"/>
    </vehicle>
    <vehicle id="423" depart="42.30">
        <route edges="2:0 0:1 1:3"/>
    </vehicle>
    <vehicle id="425" depart="42.50">
        <route edges="7:3 3:1 1:0"/>
    </vehicle>
    <vehicle id="427" depart="42.70">
        <route edges="7:3 3:1 1:5 5:6"/>
    </vehicle>
    <vehicle id="428" depart="42.80">
        <route edges="7:3 3:1 1:5"/>
    </vehicle>
    <vehicle id="429" depart="42.90">
        <route edges="6:5 5:1 1:3 3:7"/>
    </vehicle>
    <vehicle id="432" depart="43.20">
        <route edges="1:0 0:2"/>
    </vehicle>
    <vehicle id="440" depart="44.00">
        <route edges="7:3 3:1"/>
    </vehicle>
    <vehicle id="442" depart="44.20">
        <route edges="7:3 3:1 1:0 0:2"/>
    </vehicle>
    <vehicle id="443" depart="44.30">
        <route edges="3:1 1:5"/>
    </vehicle>
    <vehicle id="444" depart="44.40">
        <route edges="7:3 3:1 1:0"/>
    </vehicle>
    <vehicle id="445" depart="44.50">
        <route edges="7:3 3:1"/>
    </vehicle>
    <vehicle id="446" depart="44.60">
        <route edges="0:1 1:3"/>
    </vehicle>
    <vehicle id="449" depart="44.90">
        <route edges="2:0 0:1 1:3 3:7"/>
    </vehicle>
    <vehicle id="451" depart="45.10">
        <route edges="7:3 3:1 1:0"/>
    </vehicle>
    <vehicle id="457" depart="45.70">
        <route edges="1:3 3:7"/>
    </vehicle>
    <vehicle id="459" depart="45.90">
        <route edges="1:0 0:2"/>
    </vehicle>
    <vehicle id="462" depart="46.20">
        <route edges="2:0 0:1"/>
    </vehicle>
    <vehicle id="466" depart="46.60">
        <route edges="2:0 0:1 1:3 3:7"/>
    </vehicle>
    <vehicle id="467" depart="46.70">
        <route edges="1:0 0:2"/>
    </vehicle>
    <vehicle id="468" depart="46.80">
        <route edges="3:1 1:5 5:6"/>
    </vehicle>
    <vehicle id="469" depart="46.90">
        <route edges="6:5 5:1"/>
    </vehicle>
    <vehicle id="471" depart="47.10">
        <route edges="2:0 0:1"/>
    </vehicle>
    <vehicle id="475" depart="47.50">
        <route edges="0:1 1:3 3:7"/>
    </vehicle>
    <vehicle id="476" depart="47.60">
        <route edges="1:3 3:7"/>
    </vehicle>
    <vehicle id="479" depart="47.90">
        <route edges="7:3 3:1 1:0"/>
    </vehicle>
    <vehicle id="480" depart="48.00">
        <route edges="7:3 3:1"/>
    </vehicle>
    <vehicle id="482" depart="48.20">
        <route edges="0:1 1:5"/>
    </vehicle>
    <vehicle id="483" depart="48.30">
        <route edges="5:1 1:0 0:2"/>
    </vehicle>
    <vehicle id="486" depart="48.60">
        <route edges="7:3 3:1 1:0"/>
    </vehicle>
    <vehicle id="487" depart="48.70">
        <route edges="2:0 0:1 1:3"/>
    </vehicle>
    <vehicle id="488" depart="48.80">
        <route edges="2:0 0:1 1:3 3:7"/>
    </vehicle>
    <vehicle id="489" depart="48.90">
        <route edges="5:1 1:0"/>
    </vehicle>
    <vehicle id="492" depart="49.20">
        <route edges="7:3 3:1 1:0 0:2"/>
    </vehicle>
    <vehicle id="493" depart="49.30">
        <route edges="6:5 5:1"/>
    </vehicle>
    <vehicle id="494" depart="49.40">
        <route edges="2:0 0:1 1:5 5:6"/>
    </vehicle>
    <vehicle id="496" depart="49.60">
        <route edges="6:5 5:1 1:3 3:7"/>
    </vehicle>
    <vehicle id="497" depart="49.70">
        <route edges="1:3"/>
    </vehicle>
    <vehicle id="498" depart="49.80">
        <route edges="1:3"/>
    </vehicle>
    <vehicle id="500" depart="50.00">
        <route edges="0:1 1:3"/>
    </vehicle>
    <vehicle id="501" depart="50.10">
        <route edges="2:0 0:1 1:3 3:7"/>
    </vehicle>
    <vehicle id="505" depart="50.50">
        <route edges="5:1 1:3 3:7"/>
    </vehicle>
    <vehicle id="509" depart="50.90">
        <route edges="1:0 0:2"/>
    </vehicle>
    <vehicle id="512" depart="51.20">
        <route edges="7:3 3:1 1:0 0:2"/>
    </vehicle>
    <vehicle id="514" depart="51.40">
        <route edges="2:0 0:1 1:5 5:6"/>
    </vehicle>
    <vehicle id="516" depart="51.60">
        <route edges="2:0 0:1 1:3"/>
    </vehicle>
    <vehicle id="517" depart="51.70">
        <route edges="6:5 5:1 1:0"/>
    </vehicle>
    <vehicle id="521" depart="52.10">
        <route edges="0:1 1:3 3:7"/>
    </vehicle>
    <vehicle id="522" depart="52.20">
        <route edges="5:1 1:0 0:2"/>
    </vehicle>
    <vehicle id="524" depart="52.40">
        <route edges="2:0 0:1 1:3"/>
    </vehicle>
    <vehicle id="529" depart="52.90">
        <route edges="2:0 0:1 1:3"/>
    </vehicle>
    <vehicle id="530" depart="53.00">
        <route edges="2:0 0:1 1:5 5:6"/>
    </vehicle>
    <vehicle id="532" depart="53.20">
        <route edges="2:0 0:1 1:3 3:7"/>
    </vehicle>
    <vehicle id="533" depart="53.30">
        <route edges="5:1 1:3 3:7"/>
    </vehicle>
    <vehicle id="537" depart="53.70">
        <route edges="1:3"/>
    </vehicle>
    <vehicle id="542" depart="54.20">
        <route edges="7:3 3:1 1:0"/>
    </vehicle>
    <vehicle id="545" depart="54.50">
        <route edges="6:5 5:1 1:3 3:7"/>
    </vehicle>
    <vehicle id="546" depart="54.60">
        <route edges="1:3"/>
    </vehicle>
    <vehicle id="547" depart="54.70">
        <route edges="3:1"/>
    </vehicle>
    <vehicle id="549" depart="54.90">
        <route edges="7:3 3:1"/>
    </vehicle>
    <vehicle id="551" depart="55.10">
        <route edges="1:3 3:7"/>
    </vehicle>
    <vehicle id="552" depart="55.20">
        <route edges="2:0 0:1 1:3 3:7"/>
    </vehicle>
    <vehicle id="553" depart="55.30">
        <route edges="0:1 1:5 5:6"/>
    </vehicle>
    <vehicle id="554" depart="55.40">
        <route edges="2:0 0:1"/>
    </vehicle>
    <vehicle id="556" depart="55.60">
        <route edges="7:3 3:1 1:5"/>
    </vehicle>
    <vehicle id="559" depart="55.90">
        <route edges="7:3 3:1 1:0"/>
    </vehicle>
    <vehicle id="560" depart="56.00">
        <route edges="7:3 3:1 1:0"/>
    </vehicle>
    <vehicle id="562" depart="56.20">
        <route edges="0:1 1:5"/>
    </vehicle>
    <vehicle id="563" depart="56.30">
        <route edges="2:0 0:1 1:3 3:7"/>
    </vehicle>
    <vehicle id="564" depart="56.40">
        <route edges="7:3 3:1 1:0"/>
    </vehicle>
    <vehicle id="565" depart="56.50">
        <route edges="0:1 1:3 3:7"/>
    </vehicle>
    <vehicle id="566" depart="56.60">
        <route edges="7:3 3:1 1:5"/>
    </vehicle>
    <vehicle id="568" depart="56.80">
        <route edges="2:0 0:1"/>
    </vehicle>
    <vehicle id="569" depart="56.90">
        <route edges="1:3 3:7"/>
    </vehicle>
    <vehicle id="570" depart="57.00">
        <route edges="7:3 3:1 1:0 0:2"/>
    </vehicle>
    <vehicle id="571" depart="57.10">
        <route edges="1:0 0:2"/>
    </vehicle>
    <vehicle id="572" depart="57.20">
        <route edges="2:0 0:1 1:3 3:7"/>
    </vehicle>
    <vehicle id="574" depart="57.40">
        <route edges="3:1 1:0 0:2"/>
    </vehicle>
    <vehicle id="576" depart="57.60">
        <route edges="2:0 0:1 1:3 3:7"/>
    </vehicle>
    <vehicle id="580" depart="58.00">
        <route edges="3:1 1:0"/>
    </vehicle>
    <vehicle id="582" depart="58.20">
        <route edges="2:0 0:1 1:3 3:7"/>
    </vehicle>
    <vehicle id="585" depart="58.50">
        <route edges="3:1 1:0"/>
    </vehicle>
    <vehicle id="589" depart="58.90">
        <route edges="0:1 1:5 5:6"/>
    </vehicle>
    <vehicle id="594" depart="59.40">
        <route edges="7:3 3:1 1:0 0:2"/>
    </vehicle>
    <vehicle id="597" depart="59.70">
        <route edges="0:1 1:5"/>
    </vehicle>
    <vehicle id="599" depart="59.90">
        <route edges="6:5 5:1 1:0 0:2"/>
    </vehicle>
    <vehicle id="600" depart="60.00">
        <route edges="0:1 1:5 5:6"/>
    </vehicle>
    <vehicle id="601" depart="60.10">
        <route edges="3:1 1:5"/>
    </vehicle>
    <vehicle id="604" depart="60.40">
        <route edges="7:3 3:1 1:5 5:6"/>
    </vehicle>
    <vehicle id="605" depart="60.50">
        <route edges="2:0 0:1"/>
    </vehicle>
    <vehicle id="611" depart="61.10">
        <route edges="1:3 3:7"/>
    </vehicle>
    <vehicle id="613" depart="61.30">
        <route edges="5:1 1:0 0:2"/>
    </vehicle>
    <vehicle id="614" depart="61.40">
        <route edges="7:3 3:1"/>
    </vehicle>
    <vehicle id="615" depart="61.50">
        <route edges="1:0 0:2"/>
    </vehicle>
    <vehicle id="616" depart="61.60">
        <route edges="2:0 0:1 1:3"/>
    </vehicle>
    <vehicle id="617" depart="61.70">
        <route edges="6:5 5:1 1:0 0:2"/>
    </vehicle>
    <vehicle id="619" depart="61.90">
        <route edges="2:0 0:1 1:3 3:7"/>
    </vehicle>
    <vehicle id="621" depart="62.10">
        <route edges="0:1 1:3"/>
    </vehicle>
    <vehicle id="622" depart="62.20">
        <route edges="1:3 3:7"/>
    </vehicle>
    <vehicle id="625" depart="62.50">
        <route edges="1:5 5:6"/>
    </vehicle>
    <vehicle id="629" depart="62.90">
        <route edges="7:3 3:1 1:0 0:2"/>
    </vehicle>
    <vehicle id="631" depart="63.10">
        <route edges="1:0"/>
    </vehicle>
    <vehicle id="635" depart="63.50">
        <route edges="7:3 3:1 1:0 0:2"/>
    </vehicle>
    <vehicle id="638" depart="63.80">
        <route edges="6:5 5:1 1:0 0:2"/>
    </vehicle>
    <vehicle id="640" depart="64.00">
        <route edges="7:3 3:1"/>
    </vehicle>
    <vehicle id="642" depart="64.20">
        <route edges="6:5 5:1 1:3 3:7"/>
    </vehicle>
    <vehicle id="643" depart="64.30">
        <route edges="5:1 1:3"/>
    </vehicle>
    <vehicle id="644" depart="64.40">
        <route edges="0:1 1:3"/>
    </vehicle>
    <vehicle id="645" depart="64.50">
        <route edges="3:1 1:0 0:2"/>
    </vehicle>
    <vehicle id="646" depart="64.60">
        <route edges="2:0 0:1 1:5 5:6"/>
    </vehicle>
    <vehicle id="651" depart="65.10">
        <route edges="7:3 3:1 1:0 0:2"/>
    </vehicle>
    <vehicle id="654" depart="65.40">
        <route edges="3:1 1:5"/>
    </vehicle>
    <vehicle id="656" depart="65.60">
        <route edges="7:3 3:1 1:5"/>
    </vehicle>
    <vehicle id="657" depart="65.70">
        <route edges="5:1"/>
    </vehicle>
    <vehicle id="659" depart="65.90">
        <route edges="3:1 1:0"/>
    </vehicle>
    <vehicle id="660" depart="66.00">
        <route edges="6:5 5:1"/>
    </vehicle>
    <vehicle id="661" depart="66.10">
        <route edges="6:5 5:1 1:0 0:2"/>
    </vehicle>
    <vehicle id="668" depart="66.80">
        <route edges="0:1 1:5 5:6"/>
    </vehicle>
    <vehicle id="669" depart="66.90">
        <route edges="2:0 0:1"/>
    </vehicle>
    <vehicle id="672" depart="67.20">