<?xml version="1.0" encoding="UTF-8"?>

<!-- generated on Thu Feb 13 12:39:37 2014 by SUMO duarouter Version 0.18.0
<?xml version="1.0" encoding="UTF-8"?>

<configuration xmlns:xsi="http://www.w3.org/2001/XMLSchema-instance" xsi:noNamespaceSchemaLocation="http://sumo.sf.net/xsd/duarouterConfiguration.xsd">

    <input>
        <net-file value="simpleT.net.xml"/>
        <trip-files value="experimentos/simpleT.p0.7.6.trips.xml"/>
    </input>

    <output>
        <output-file value="experimentos/simpleT.p0.7.6.rou.xml"/>
    </output>

    <processing>
        <ignore-errors value="true"/>
    </processing>

    <random_number>
        <random value="true"/>
    </random_number>

</configuration>
-->

<routes xmlns:xsi="http://www.w3.org/2001/XMLSchema-instance" xsi:noNamespaceSchemaLocation="http://sumo.sf.net/xsd/routes_file.xsd">
    <vehicle id="3" depart="2.10">
        <route edges="3:1"/>
    </vehicle>
    <vehicle id="4" depart="2.80">
        <route edges="7:3 3:1"/>
    </vehicle>
    <vehicle id="5" depart="3.50">
        <route edges="2:0 0:1 1:5 5:6"/>
    </vehicle>
    <vehicle id="8" depart="5.60">
        <route edges="7:3 3:1"/>
    </vehicle>
    <vehicle id="11" depart="7.70">
        <route edges="6:5 5:1 1:3 3:7"/>
    </vehicle>
    <vehicle id="15" depart="10.50">
        <route edges="6:5 5:1 1:3 3:7"/>
    </vehicle>
    <vehicle id="16" depart="11.20">
        <route edges="2:0 0:1 1:3"/>
    </vehicle>
    <vehicle id="17" depart="11.90">
        <route edges="6:5 5:1 1:3"/>
    </vehicle>
    <vehicle id="24" depart="16.80">
        <route edges="3:1 1:0 0:2"/>
    </vehicle>
    <vehicle id="25" depart="17.50">
        <route edges="0:1 1:3"/>
    </vehicle>
    <vehicle id="26" depart="18.20">
        <route edges="6:5 5:1 1:0 0:2"/>
    </vehicle>
    <vehicle id="28" depart="19.60">
        <route edges="7:3 3:1 1:0 0:2"/>
    </vehicle>
    <vehicle id="30" depart="21.00">
        <route edges="1:3 3:7"/>
    </vehicle>
    <vehicle id="34" depart="23.80">
        <route edges="2:0 0:1 1:5"/>
    </vehicle>
    <vehicle id="35" depart="24.50">
        <route edges="7:3 3:1 1:0 0:2"/>
    </vehicle>
    <vehicle id="37" depart="25.90">
        <route edges="7:3 3:1 1:0 0:2"/>
    </vehicle>
    <vehicle id="39" depart="27.30">
        <route edges="5:1 1:3 3:7"/>
    </vehicle>
    <vehicle id="41" depart="28.70">
        <route edges="0:1 1:3 3:7"/>
    </vehicle>
    <vehicle id="42" depart="29.40">
        <route edges="3:1 1:0 0:2"/>
    </vehicle>
    <vehicle id="48" depart="33.60">
        <route edges="0:1 1:5"/>
    </vehicle>
    <vehicle id="50" depart="35.00">
        <route edges="7:3 3:1 1:5 5:6"/>
    </vehicle>
    <vehicle id="52" depart="36.40">
        <route edges="1:0 0:2"/>
    </vehicle>
    <vehicle id="53" depart="37.10">
        <route edges="7:3 3:1 1:5 5:6"/>
    </vehicle>
    <vehicle id="56" depart="39.20">
        <route edges="2:0 0:1 1:3 3:7"/>
    </vehicle>
    <vehicle id="58" depart="40.60">
        <route edges="7:3 3:1 1:0 0:2"/>
    </vehicle>
    <vehicle id="59" depart="41.30">
        <route edges="2:0 0:1 1:5"/>
    </vehicle>
    <vehicle id="61" depart="42.70">
        <route edges="7:3 3:1 1:0 0:2"/>
    </vehicle>
    <vehicle id="62" depart="43.40">
        <route edges="6:5 5:1 1:3"/>
    </vehicle>
    <vehicle id="64" depart="44.80">
        <route edges="5:1 1:0"/>
    </vehicle>
    <vehicle id="65" depart="45.50">
        <route edges="6:5 5:1 1:0 0:2"/>
    </vehicle>
    <vehicle id="68" depart="47.60">
        <route edges="3:1 1:0 0:2"/>
    </vehicle>
    <vehicle id="69" depart="48.30">
        <route edges="0:1"/>
    </vehicle>
    <vehicle id="70" depart="49.00">
        <route edges="7:3 3:1"/>
    </vehicle>
    <vehicle id="73" depart="51.10">
        <route edges="3:1"/>
    </vehicle>
    <vehicle id="75" depart="52.50">
        <route edges="7:3 3:1 1:5 5:6"/>
    </vehicle>
    <vehicle id="77" depart="53.90">
        <route edges="5:1 1:3 3:7"/>
    </vehicle>
    <vehicle id="78" depart="54.60">
        <route edges="0:1 1:3"/>
    </vehicle>
    <vehicle id="82" depart="57.40">
        <route edges="7:3 3:1 1:0 0:2"/>
    </vehicle>
    <vehicle id="83" depart="58.10">
        <route edges="3:1"/>
    </vehicle>
    <vehicle id="84" depart="58.80">
        <route edges="7:3 3:1 1:0 0:2"/>
    </vehicle>
    <vehicle id="85" depart="59.50">
        <route edges="1:3 3:7"/>
    </vehicle>
    <vehicle id="86" depart="60.20">
        <route edges="2:0 0:1 1:3 3:7"/>
    </vehicle>
    <vehicle id="87" depart="60.90">
        <route edges="3:1 1:5 5:6"/>
    </vehicle>
    <vehicle id="88" depart="61.60">
        <route edges="2:0 0:1 1:3 3:7"/>
    </vehicle>
    <vehicle id="89" depart="62.30">
        <route edges="6:5 5:1 1:3"/>
    </vehicle>
    <vehicle id="93" depart="65.10">
        <route edges="2:0 0:1"/>
    </vehicle>
    <vehicle id="96" depart="67.20">
        <route edges="2:0 0:1 1:3"/>
    </vehicle>
    <vehicle id="99" depart="69.30">
        <route edges="1:3 3:7"/>
    </vehicle>
    <vehicle id="101" depart="70.70">
        <route edges="6:5 5:1 1:3"/>
    </vehicle>
    <vehicle id="103" depart="72.10">
        <route edges="1:0"/>
    </vehicle>
    <vehicle id="105" depart="73.50">
        <route edges="2:0 0:1 1:3"/>
    </vehicle>
    <vehicle id="106" depart="74.20">
        <route edges="6:5 5:1 1:0 0:2"/>
    </vehicle>
    <vehicle id="110" depart="77.00">
        <route edges="0:1"/>
    </vehicle>
    <vehicle id="111" depart="77.70">
        <route edges="6:5 5:1 1:0 0:2"/>
    </vehicle>
    <vehicle id="116" depart="81.20">
        <route edges="7:3 3:1 1:5 5:6"/>
    </vehicle>
    <vehicle id="118" depart="82.60">
        <route edges="0:1 1:3 3:7"/>
    </vehicle>
    <vehicle id="119" depart="83.30">
        <route edges="7:3 3:1"/>
    </vehicle>
    <vehicle id="121" depart="84.70">
        <route edges="6:5 5:1 1:3"/>
    </vehicle>
    <vehicle id="122" depart="85.40">
        <route edges="7:3 3:1 1:0 0:2"/>
    </vehicle>
    <vehicle id="124" depart="86.80">
        <route edges="0:1 1:3 3:7"/>
    </vehicle>
    <vehicle id="127" depart="88.90">
        <route edges="2:0 0:1 1:3"/>
    </vehicle>
    <vehicle id="128" depart="89.60">
        <route edges="5:1 1:0 0:2"/>
    </vehicle>
    <vehicle id="130" depart="91.00">
        <route edges="2:0 0:1"/>
    </vehicle>
    <vehicle id="131" depart="91.70">
        <route edges="2:0 0:1 1:3 3:7"/>
    </vehicle>
    <vehicle id="133" depart="93.10">
        <route edges="0:1 1:5 5:6"/>
    </vehicle>
    <vehicle id="136" depart="95.20">
        <route edges="0:1"/>
    </vehicle>
    <vehicle id="141" depart="98.70">
        <route edges="1:0"/>
    </vehicle>
    <vehicle id="142" depart="99.40">
        <route edges="0:1 1:3 3:7"/>
    </vehicle>
    <vehicle id="143" depart="100.10">
        <route edges="2:0 0:1 1:5"/>
    </vehicle>
    <vehicle id="149" depart="104.30">
        <route edges="1:3 3:7"/>
    </vehicle>
    <vehicle id="150" depart="105.00">
        <route edges="2:0 0:1 1:5 5:6"/>
    </vehicle>
    <vehicle id="153" depart="107.10">
        <route edges="2:0 0:1 1:5 5:6"/>
    </vehicle>
    <vehicle id="155" depart="108.50">
        <route edges="5:1 1:3"/>
    </vehicle>
    <vehicle id="156" depart="109.20">
        <route edges="2:0 0:1 1:3 3:7"/>
    </vehicle>
    <vehicle id="159" depart="111.30">
        <route edges="2:0 0:1 1:5 5:6"/>
    </vehicle>
    <vehicle id="160" depart="112.00">
        <route edges="6:5 5:1 1:0 0:2"/>
    </vehicle>
    <vehicle id="161" depart="112.70">
        <route edges="6:5 5:1 1:0 0:2"/>
    </vehicle>
    <vehicle id="163" depart="114.10">
        <route edges="3:1 1:0"/>
    </vehicle>
    <vehicle id="166" depart="116.20">
        <route edges="1:0 0:2"/>
    </vehicle>
    <vehicle id="167" depart="116.90">
        <route edges="0:1 1:3 3:7"/>
    </vehicle>
    <vehicle id="168" depart="117.60">
        <route edges="7:3 3:1"/>
    </vehicle>
    <vehicle id="169" depart="118.30">
        <route edges="3:1 1:0 0:2"/>
    </vehicle>
    <vehicle id="171" depart="119.70">
        <route edges="2:0 0:1 1:5 5:6"/>
    </vehicle>
    <vehicle id="172" depart="120.40">
        <route edges="1:0"/>
    </vehicle>
    <vehicle id="174" depart="121.80">
        <route edges="7:3 3:1 1:0 0:2"/>
    </vehicle>
    <vehicle id="175" depart="122.50">
        <route edges="6:5 5:1 1:3 3:7"/>
    </vehicle>
    <vehicle id="177" depart="123.90">
        <route edges="7:3 3:1"/>
    </vehicle>
    <vehicle id="181" depart="126.70">
        <route edges="2:0 0:1 1:3 3:7"/>
    </vehicle>
    <vehicle id="182" depart="127.40">
        <route edges="7:3 3:1"/>
    </vehicle>
    <vehicle id="185" depart="129.50">
        <route edges="6:5 5:1"/>
    </vehicle>
    <vehicle id="189" depart="132.30">
        <route edges="5:1 1:3 3:7"/>
    </vehicle>
    <vehicle id="193" depart="135.10">
        <route edges="1:0 0:2"/>
    </vehicle>
    <vehicle id="194" depart="135.80">
        <route edges="5:1 1:0 0:2"/>
    </vehicle>
    <vehicle id="195" depart="136.50">
        <route edges="3:1 1:0 0:2"/>
    </vehicle>
    <vehicle id="197" depart="137.90">
        <route edges="0:1 1:5"/>
    </vehicle>
    <vehicle id="199" depart="139.30">
        <route edges="6:5 5:1 1:3 3:7"/>
    </vehicle>
    <vehicle id="200" depart="140.00">
        <route edges="2:0 0:1 1:3 3:7"/>
    </vehicle>
    <vehicle id="202" depart="141.40">
        <route edges="7:3 3:1 1:0 0:2"/>
    </vehicle>
    <vehicle id="204" depart="142.80">
        <route edges="2:0 0:1 1:3"/>
    </vehicle>
    <vehicle id="207" depart="144.90">
        <route edges="3:1 1:0 0:2"/>
    </vehicle>
    <vehicle id="208" depart="145.60">
        <route edges="7:3 3:1 1:0 0:2"/>
    </vehicle>
    <vehicle id="209" depart="146.30">
        <route edges="2:0 0:1 1:3"/>
    </vehicle>
    <vehicle id="211" depart="147.70">
        <route edges="6:5 5:1 1:3"/>
    </vehicle>
    <vehicle id="212" depart="148.40">
        <route edges="2:0 0:1 1:3 3:7"/>
    </vehicle>
    <vehicle id="214" depart="149.80">
        <route edges="2:0 0:1"/>
    </vehicle>
    <vehicle id="216" depart="151.20">
        <route edges="3:1 1:0"/>
    </vehicle>
    <vehicle id="220" depart="154.00">
        <route edges="2:0 0:1 1:3 3:7"/>
    </vehicle>
    <vehicle id="221" depart="154.70">
        <route edges="7:3 3:1 1:0"/>
    </vehicle>
    <vehicle id="222" depart="155.40">
        <route edges="2:0 0:1 1:5"/>
    </vehicle>
    <vehicle id="223" depart="156.10">
        <route edges="1:0 0:2"/>
    </vehicle>
    <vehicle id="224" depart="156.80">
        <route edges="6:5 5:1 1:3 3:7"/>
    </vehicle>
    <vehicle id="225" depart="157.50">
        <route edges="3:1"/>
    </vehicle>
    <vehicle id="226" depart="158.20">
        <route edges="2:0 0:1 1:3 3:7"/>
    </vehicle>
    <vehicle id="230" depart="161.00">
        <route edges="7:3 3:1 1:0 0:2"/>
    </vehicle>
    <vehicle id="231" depart="161.70">
        <route edges="2:0 0:1 1:3"/>
    </vehicle>
    <vehicle id="232" depart="162.40">
        <route edges="7:3 3:1 1:0 0:2"/>
    </vehicle>
    <vehicle id="233" depart="163.10">
        <route edges="7:3 3:1 1:5"/>
    </vehicle>
    <vehicle id="235" depart="164.50">
        <route edges="2:0 0:1 1:3 3:7"/>
    </vehicle>
    <vehicle id="237" depart="165.90">
        <route edges="2:0 0:1 1:3 3:7"/>
    </vehicle>
    <vehicle id="240" depart="168.00">
        <route edges="0:1 1:3 3:7"/>
    </vehicle>
    <vehicle id="241" depart="168.70">
        <route edges="0:1 1:3 3:7"/>
    </vehicle>
    <vehicle id="242" depart="169.40">
        <route edges="1:0 0:2"/>
    </vehicle>
    <vehicle id="244" depart="170.80">
        <route edges="6:5 5:1 1:0 0:2"/>
    </vehicle>
    <vehicle id="247" depart="172.90">
        <route edges="1:3"/>
    </vehicle>
    <vehicle id="249" depart="174.30">
        <route edges="0:1 1:3 3:7"/>
    </vehicle>
    <vehicle id="250" depart="175.00">
        <route edges="6:5 5:1 1:0"/>
    </vehicle>
    <vehicle id="251" depart="175.70">
        <route edges="2:0 0:1 1:3"/>
    </vehicle>
    <vehicle id="254" depart="177.80">
        <route edges="3:1 1:0"/>
    </vehicle>
    <vehicle id="256" depart="179.20">
        <route edges="0:1 1:3 3:7"/>
    </vehicle>
    <vehicle id="257" depart="179.90">
        <route edges="2:0 0:1"/>
    </vehicle>
    <vehicle id="259" depart="181.30">
        <route edges="1:3"/>
    </vehicle>
    <vehicle id="260" depart="182.00">
        <route edges="3:1"/>
    </vehicle>
    <vehicle id="262" depart="183.40">
        <route edges="1:3"/>
    </vehicle>
    <vehicle id="264" depart="184.80">
        <route edges="7:3 3:1 1:0 0:2"/>
    </vehicle>
    <vehicle id="265" depart="185.50">
        <route edges="6:5 5:1 1:3"/>
    </vehicle>
    <vehicle id="266" depart="186.20">
        <route edges="6:5 5:1 1:3 3:7"/>
    </vehicle>
    <vehicle id="268" depart="187.60">
        <route edges="3:1 1:5 5:6"/>
    </vehicle>
    <vehicle id="270" depart="189.00">
        <route edges="7:3 3:1 1:0 0:2"/>
    </vehicle>
    <vehicle id="273" depart="191.10">
        <route edges="7:3 3:1 1:5 5:6"/>
    </vehicle>
    <vehicle id="274" depart="191.80">
        <route edges="7:3 3:1 1:0 0:2"/>
    </vehicle>
    <vehicle id="276" depart="193.20">
        <route edges="7:3 3:1 1:5"/>
    </vehicle>
    <vehicle id="279" depart="195.30">
        <route edges="6:5 5:1 1:0"/>
    </vehicle>
    <vehicle id="280" depart="196.00">
        <route edges="2:0 0:1"/>
    </vehicle>
    <vehicle id="282" depart="197.40">
        <route edges="5:1 1:0 0:2"/>
    </vehicle>
    <vehicle id="284" depart="198.80">
        <route edges="3:1 1:0 0:2"/>
    </vehicle>
    <vehicle id="285" depart="199.50">
        <route edges="1:3 3:7"/>
    </vehicle>
    <vehicle id="286" depart="200.20">
        <route edges="7:3 3:1"/>
    </vehicle>
    <vehicle id="289" depart="202.30">
        <route edges="7:3 3:1 1:0 0:2"/>
    </vehicle>
    <vehicle id="290" depart="203.00">
        <route edges="7:3 3:1 1:0"/>
    </vehicle>
    <vehicle id="291" depart="203.70">
        <route edges="7:3 3:1 1:0"/>
    </vehicle>
    <vehicle id="292" depart="204.40">
        <route edges="5:1 1:3 3:7"/>
    </vehicle>
    <vehicle id="293" depart="205.10">
        <route edges="6:5 5:1"/>
    </vehicle>
    <vehicle id="297" depart="207.90">
        <route edges="2:0 0:1 1:3 3:7"/>
    </vehicle>
    <vehicle id="298" depart="208.60">
        <route edges="1:0 0:2"/>
    </vehicle>
    <vehicle id="300" depart="210.00">
        <route edges="5:1 1:0"/>
    </vehicle>
    <vehicle id="302" depart="211.40">
        <route edges="5:1 1:0"/>
    </vehicle>
    <vehicle id="304" depart="212.80">
        <route edges="1:0 0:2"/>
    </vehicle>
    <vehicle id="307" depart="214.90">
        <route edges="0:1 1:3 3:7"/>
    </vehicle>
    <vehicle id="308" depart="215.60">
        <route edges="6:5 5:1"/>
    </vehicle>
    <vehicle id="310" depart="217.00">
        <route edges="2:0 0:1 1:5 5:6"/>
    </vehicle>
    <vehicle id="314" depart="219.80">
        <route edges="7:3 3:1"/>
    </vehicle>
    <vehicle id="316" depart="221.20">
        <route edges="1:3 3:7"/>
    </vehicle>
    <vehicle id="317" depart="221.90">
        <route edges="2:0 0:1 1:5 5:6"/>
    </vehicle>
    <vehicle id="322" depart="225.40">
        <route edges="3:1 1:0 0:2"/>
    </vehicle>
    <vehicle id="328" depart="229.60">
        <route edges="1:0 0:2"/>
    </vehicle>
    <vehicle id="332" depart="232.40">
        <route edges="1:5"/>
    </vehicle>
    <vehicle id="333" depart="233.10">
        <route edges="7:3 3:1 1:5 5:6"/>
    </vehicle>
    <vehicle id="336" depart="235.20">
        <route edges="5:1 1:0"/>
    </vehicle>
    <vehicle id="337" depart="235.90">
        <route edges="3:1 1:0"/>
    </vehicle>
    <vehicle id="340" depart="238.00">
        <route edges="2:0 0:1 1:3 3:7"/>
    </vehicle>
    <vehicle id="341" depart="238.70">
        <route edges="7:3 3:1 1:5 5:6"/>
    </vehicle>
    <vehicle id="342" depart="239.40">
        <route edges="0:1 1:5"/>
    </vehicle>
    <vehicle id="343" depart="240.10">
        <route edges="6:5 5:1 1:3"/>
    </vehicle>
    <vehicle id="346" depart="242.20">
        <route edges="7:3 3:1 1:0 0:2"/>
    </vehicle>
    <vehicle id="349" depart="244.30">
        <route edges="1:0"/>
    </vehicle>
    <vehicle id="350" depart="245.00">
        <route edges="2:0 0:1"/>
    </vehicle>
    <vehicle id="353" depart="247.10">
        <route edges="2:0 0:1 1:3 3:7"/>
    </vehicle>
    <vehicle id="362" depart="253.40">
        <route edges="0:1 1:3 3:7"/>
    </vehicle>
    <vehicle id="363" depart="254.10">
        <route edges="0:1 1:5"/>
    </vehicle>
    <vehicle id="364" depart="254.80">
        <route edges="1:0 0:2"/>
    </vehicle>
    <vehicle id="367" depart="256.90">
        <route edges="7:3 3:1 1:0 0:2"/>
    </vehicle>
    <vehicle id="368" depart="257.60">
        <route edges="7:3 3:1 1:0 0:2"/>
    </vehicle>
    <vehicle id="371" depart="259.70">
        <route edges="7:3 3:1 1:0 0:2"/>
    </vehicle>
    <vehicle id="372" depart="260.40">
        <route edges="5:1 1:3 3:7"/>
    </vehicle>
    <vehicle id="377" depart="263.90">
        <route edges="0:1"/>
    </vehicle>
    <vehicle id="380" depart="266.00">
        <route edges="1:3 3:7"/>
    </vehicle>
    <vehicle id="383" depart="268.10">
        <route edges="5:1 1:0 0:2"/>
    </vehicle>
    <vehicle id="385" depart="269.50">
        <route edges="3:1 1:0 0:2"/>
    </vehicle>
    <vehicle id="389" depart="272.30">
        <route edges="7:3 3:1 1:5"/>
    </vehicle>
    <vehicle id="390" depart="273.00">
        <route edges="7:3 3:1 1:0"/>
    </vehicle>
    <vehicle id="391" depart="273.70">
        <route edges="7:3 3:1 1:0 0:2"/>
    </vehicle>
    <vehicle id="392" depart="274.40">
        <route edges="2:0 0:1 1:3 3:7"/>
    </vehicle>
    <vehicle id="394" depart="275.80">
        <route edges="7:3 3:1 1:0"/>
    </vehicle>
    <vehicle id="397" depart="277.90">
        <route edges="1:3 3:7"/>
    </vehicle>
    <vehicle id="398" depart="278.60">
        <route edges="6:5 5:1 1:3 3:7"/>
    </vehicle>
    <vehicle id="399" depart="279.30">
        <route edges="7:3 3:1 1:5 5:6"/>
    </vehicle>
    <vehicle id="400" depart="280.00">
        <route edges="7:3 3:1"/>
    </vehicle>
    <vehicle id="402" depart="281.40">
        <route edges="0:1"/>
    </vehicle>
    <vehicle id="403" depart="282.10">
        <route edges="1:3 3:7"/>
    </vehicle>
    <vehicle id="404" depart="282.80">
        <route edges="7:3 3:1 1:5 5:6"/>
    </vehicle>
    <vehicle id="406" depart="284.20">
        <route edges="6:5 5:1 1:0"/>
    </vehicle>
    <vehicle id="407" depart="284.90">
        <route edges="0:1 1:3 3:7"/>
    </vehicle>
    <vehicle id="408" depart="285.60">
        <route edges="1:3 3:7"/>
    </vehicle>
    <vehicle id="409" depart="286.30">
        <route edges="6:5 5:1 1:3"/>
    </vehicle>
    <vehicle id="410" depart="287.00">
        <route edges="7:3 3:1 1:0 0:2"/>
    </vehicle>
    <vehicle id="418" depart="292.60">
        <route edges="1:3"/>
    </vehicle>
    <vehicle id="421" depart="294.70">
        <route edges="6:5 5:1 1:3 3:7"/>
    </vehicle>
    <vehicle id="423" depart="296.10">
        <route edges="7:3 3:1 1:5 5:6"/>
    </vehicle>
    <vehicle id="424" depart="296.80">
        <route edges="6:5 5:1"/>
    </vehicle>
    <vehicle id="425" depart="297.50">
        <route edges="2:0 0:1 1:3"/>
    </vehicle>
    <vehicle id="427" depart="298.90">
        <route edges="7:3 3:1 1:0 0:2"/>
    </vehicle>
    <vehicle id="429" depart="300.30">
        <route edges="7:3 3:1 1:0 0:2"/>
    </vehicle>
    <vehicle id="430" depart="301.00">
        <route edges="0:1 1:3 3:7"/>
    </vehicle>
    <vehicle id="431" depart="301.70">
        <route edges="2:0 0:1"/>
    </vehicle>
    <vehicle id="432" depart="302.40">
        <route edges="1:0 0:2"/>
    </vehicle>
    <vehicle id="433" depart="303.10">
        <route edges="2:0 0:1 1:5 5:6"/>
    </vehicle>
    <vehicle id="434" depart="303.80">
        <route edges="5:1 1:3 3:7"/>
    </vehicle>
    <vehicle id="435" depart="304.50">
        <route edges="2:0 0:1 1:5"/>
    </vehicle>
    <vehicle id="436" depart="305.20">
        <route edges="0:1 1:3 3:7"/>
    </vehicle>
    <vehicle id="442" depart="309.40">
        <route edges="7:3 3:1"/>
    </vehicle>
    <vehicle id="443" depart="310.10">
        <route edges="2:0 0:1 1:5 5:6"/>
    </vehicle>
    <vehicle id="444" depart="310.80">
        <route edges="2:0 0:1 1:3 3:7"/>
    </vehicle>
    <vehicle id="446" depart="312.20">
        <route edges="3:1"/>
    </vehicle>
    <vehicle id="447" depart="312.90">
        <route edges="3:1 1:5 5:6"/>
    </vehicle>
    <vehicle id="448" depart="313.60">
        <route edges="6:5 5:1 1:3 3:7"/>
    </vehicle>
    <vehicle id="449" depart="314.30">
        <route edges="1:0"/>
    </vehicle>
    <vehicle id="450" depart="315.00">
        <route edges="6:5 5:1 1:3"/>
    </vehicle>
    <vehicle id="453" depart="317.10">
        <route edges="0:1 1:5"/>
    </vehicle>
    <vehicle id="454" depart="317.80">
        <route edges="1:0 0:2"/>
    </vehicle>
    <vehicle id="456" depart="319.20">
        <route edges="2:0 0:1 1:3 3:7"/>
    </vehicle>
    <vehicle id="459" depart="321.30">
        <route edges="0:1"/>
    </vehicle>
    <vehicle id="460" depart="322.00">
        <route edges="2:0 0:1 1:3"/>
    </vehicle>
    <vehicle id="463" depart="324.10">
        <route edges="2:0 0:1 1:3 3:7"/>
    </vehicle>
    <vehicle id="465" depart="325.50">
        <route edges="2:0 0:1 1:5 5:6"/>
    </vehicle>
    <vehicle id="467" depart="326.90">
        <route edges="2:0 0:1 1:5 5:6"/>
    </vehicle>
    <vehicle id="468" depart="327.60">
        <route edges="7:3 3:1 1:0 0:2"/>
    </vehicle>
    <vehicle id="470" depart="329.00">
        <route edges="0:1"/>
    </vehicle>
    <vehicle id="473" depart="331.10">
        <route edges="2:0 0:1 1:3"/>
    </vehicle>
    <vehicle id="476" depart="333.20">
        <route edges="3:1 1:0 0:2"/>
    </vehicle>
    <vehicle id="478" depart="334.60">
        <route edges="7:3 3:1 1:5 5:6"/>
    </vehicle>
    <vehicle id="479" depart="335.30">
        <route edges="7:3 3:1 1:0 0:2"/>
    </vehicle>
    <vehicle id="480" depart="336.00">
        <route edges="7:3 3:1"/>
    </vehicle>
    <vehicle id="483" depart="338.10">
        <route edges="7:3 3:1 1:0 0:2"/>
    </vehicle>
    <vehicle id="484" depart="338.80">
        <route edges="2:0 0:1"/>
    </vehicle>
    <vehicle id="485" depart="339.50">
        <route edges="1:0"/>
    </vehicle>
    <vehicle id="486" depart="340.20">
        <route edges="6:5 5:1 1:0"/>
    </vehicle>
    <vehicle id="491" depart="343.70">
        <route edges="7:3 3:1 1:0"/>
    </vehicle>
    <vehicle id="494" depart="345.80">
        <route edges="2:0 0:1"/>
    </vehicle>
    <vehicle id="496" depart="347.20">
        <route edges="7:3 3:1 1:0"/>
    </vehicle>
    <vehicle id="497" depart="347.90">
        <route edges="0:1"/>
    </vehicle>
    <vehicle id="499" depart="349.30">
        <route edges="2:0 0:1 1:3 3:7"/>
    </vehicle>
    <vehicle id="501" depart="350.70">
        <route edges="3:1 1:0 0:2"/>
    </vehicle>
    <vehicle id="502" depart="351.40">
        <route edges="5:1 1:0"/>
    </vehicle>
    <vehicle id="504" depart="352.80">
        <route edges="2:0 0:1 1:3 3:7"/>
    </vehicle>
    <vehicle id="507" depart="354.90">
        <route edges="7:3 3:1 1:5 5:6"/>
    </vehicle>
    <vehicle id="509" depart="356.30">
        <route edges="2:0 0:1 1:3 3:7"/>
    </vehicle>
    <vehicle id="512" depart="358.40">
        <route edges="2:0 0:1 1:5"/>
    </vehicle>
    <vehicle id="513" depart="359.10">
        <route edges="2:0 0:1"/>
    </vehicle>
    <vehicle id="515" depart="360.50">
        <route edges="5:1 1:3 3:7"/>
    </vehicle>
    <vehicle id="520" depart="364.00">
        <route edges="7:3 3:1 1:0 0:2"/>
    </vehicle>
    <vehicle id="521" depart="364.70">
        <route edges="7:3 3:1"/>
    </vehicle>
    <vehicle id="523" depart="366.10">
        <route edges="7:3 3:1"/>
    </vehicle>
    <vehicle id="525" depart="367.50">
        <route edges="7:3 3:1 1:5 5:6"/>
    </vehicle>
    <vehicle id="528" depart="369.60">
        <route edges="5:1 1:3"/>
    </vehicle>
    <vehicle id="529" depart="370.30">
        <route edges="1:3 3:7"/>
    </vehicle>
    <vehicle id="531" depart="371.70">
        <route edges="2:0 0:1 1:3 3:7"/>
    </vehicle>
    <vehicle id="532" depart="372.40">
        <route edges="7:3 3:1 1:5"/>
    </vehicle>
    <vehicle id="533" depart="373.10">
        <route edges="0:1 1:3 3:7"/>
    </vehicle>
    <vehicle id="536" depart="375.20">
        <route edges="7:3 3:1"/>
    </vehicle>
    <vehicle id="540" depart="378.00">
        <route edges="7:3 3:1 1:0"/>
    </vehicle>
    <vehicle id="546" depart="382.20">
        <route edges="1:3"/>
    </vehicle>
    <vehicle id="548" depart="383.60">
        <route edges="0:1"/>
    </vehicle>
    <vehicle id="550" depart="385.00">
        <route edges="2:0 0:1 1:3 3:7"/>
    </vehicle>
    <vehicle id="552" depart="386.40">
        <route edges="5:1 1:3"/>
    </vehicle>
    <vehicle id="556" depart="389.20">
        <route edges="7:3 3:1 1:0 0:2"/>
    </vehicle>
    <vehicle id="558" depart="390.60">
        <route edges="7:3 3:1 1:5"/>
    </vehicle>
    <vehicle id="559" depart="391.30">
        <route edges="2:0 0:1 1:3 3:7"/>
    </vehicle>
    <vehicle id="561" depart="392.70">
        <route edges="7:3 3:1 1:5 5:6"/>
    </vehicle>
    <vehicle id="564" depart="394.80">
        <route edges="2:0 0:1 1:3"/>
    </vehicle>
    <vehicle id="565" depart="395.50">
        <route edges="1:3 3:7"/>
    </vehicle>
    <vehicle id="566" depart="396.20">
        <route edges="6:5 5:1 1:0 0:2"/>
    </vehicle>
    <vehicle id="568" depart="397.60">
        <route edges="5:1 1:3"/>
    </vehicle>
    <vehicle id="569" depart="398.30">
        <route edges="3:1 1:0 0:2"/>
    </vehicle>
    <vehicle id="571" depart="399.70">
        <route edges="7:3 3:1 1:0 0:2"/>
    </vehicle>
    <vehicle id="576" depart="403.20">
        <route edges="5:1 1:3 3:7"/>
    </vehicle>
    <vehicle id="585" depart="409.50">
        <route edges="2:0 0:1 1:5"/>
    </vehicle>
    <vehicle id="589" depart="412.30">
        <route edges="2:0 0:1 1:3"/>
    </vehicle>
    <vehicle id="593" depart="415.10">
        <route edges="2:0 0:1 1:5"/>
    </vehicle>
    <vehicle id="594" depart="415.80">
        <route edges="7:3 3:1"/>
    </vehicle>
    <vehicle id="597" depart="417.90">
        <route edges="7:3 3:1 1:5 5:6"/>
    </vehicle>
    <vehicle id="598" depart="418.60">
        <route edges="7:3 3:1 1:0 0:2"/>
    </vehicle>
    <vehicle id="599" depart="419.30">
        <route edges="7:3 3:1 1:5 5:6"/>
    </vehicle>
    <vehicle id="601" depart="420.70">
        <route edges="6:5 5:1 1:3 3:7"/>
    </vehicle>
    <vehicle id="602" depart="421.40">
        <route edges="3:1 1:5"/>
    </vehicle>
    <vehicle id="603" depart="422.10">
        <route edges="1:0 0:2"/>
    </vehicle>
    <vehicle id="605" depart="423.50">
        <route edges="1:0"/>
    </vehicle>
    <vehicle id="606" depart="424.20">
        <route edges="7:3 3:1 1:5 5:6"/>
    </vehicle>
    <vehicle id="613" depart="429.10">
        <route edges="1:0"/>
    </vehicle>
    <vehicle id="614" depart="429.80">
        <route edges="6:5 5:1 1:0 0:2"/>
    </vehicle>
    <vehicle id="616" depart="431.20">
        <route edges="7:3 3:1 1:0 0:2"/>
    </vehicle>
    <vehicle id="617" depart="431.90">
        <route edges="5:1 1:0"/>
    </vehicle>
    <vehicle id="620" depart="434.00">
        <route edges="2:0 0:1 1:5 5:6"/>
    </vehicle>
    <vehicle id="622" depart="435.40">
        <route edges="5:1 1:0 0:2"/>
    </vehicle>
    <vehicle id="623" depart="436.10">
        <route edges="3:1 1:5 5:6"/>
    </vehicle>
    <vehicle id="626" depart="438.20">
        <route edges="5:1 1:0 0:2"/>
    </vehicle>
    <vehicle id="627" depart="438.90">
        <route edges="0:1 1:5 5:6"/>
    </vehicle>
    <vehicle id="628" depart="439.60">
        <route edges="6:5 5:1 1:3 3:7"/>
    </vehicle>
    <vehicle id="629" depart="440.30">
        <route edges="0:1 1:5"/>
    </vehicle>
    <vehicle id="630" depart="441.00">
        <route edges="6:5 5:1 1:0"/>
    </vehicle>
    <vehicle id="631" depart="441.70">
        <route edges="2:0 0:1 1:3 3:7"/>
    </vehicle>
    <vehicle id="633" depart="443.10">
        <route edges="0:1 1:5"/>
    </vehicle>
    <vehicle id="638" depart="446.60">
        <route edges="2:0 0:1 1:3 3:7"/>
    </vehicle>
    <vehicle id="639" depart="447.30">
        <route edges="7:3 3:1 1:5 5:6"/>
    </vehicle>
    <vehicle id="640" depart="448.00">
        <route edges="6:5 5:1 1:0"/>
    </vehicle>
    <vehicle id="641" depart="448.70">
        <route edges="7:3 3:1 1:0"/>
    </vehicle>
    <vehicle id="643" depart="450.10">
        <route edges="2:0 0:1 1:3 3:7"/>
    </vehicle>
    <vehicle id="644" depart="450.80">
        <route edges="7:3 3:1"/>
    </vehicle>
    <vehicle id="645" depart="451.50">
        <route edges="7:3 3:1 1:5"/>
    </vehicle>
    <vehicle id="646" depart="452.20">
        <route edges="6:5 5:1 1:0 0:2"/>
    </vehicle>
    <vehicle id="647" depart="452.90">
        <route edges="5:1 1:3 3:7"/>
    </vehicle>
    <vehicle id="650" depart="455.00">
        <route edges="1:3"/>
    </vehicle>
    <vehicle id="652" depart="456.40">
        <route edges="2:0 0:1 1:3"/>
    </vehicle>
    <vehicle id="653" depart="457.10">
        <route edges="3:1 1:0"/>