<?xml version="1.0" encoding="UTF-8"?>

<!-- generated on Thu Feb 13 12:38:15 2014 by SUMO duarouter Version 0.18.0
<?xml version="1.0" encoding="UTF-8"?>

<configuration xmlns:xsi="http://www.w3.org/2001/XMLSchema-instance" xsi:noNamespaceSchemaLocation="http://sumo.sf.net/xsd/duarouterConfiguration.xsd">

    <input>
        <net-file value="simpleT.net.xml"/>
        <trip-files value="experimentos/simpleT.p0.1.7.trips.xml"/>
    </input>

    <output>
        <output-file value="experimentos/simpleT.p0.1.7.rou.xml"/>
    </output>

    <processing>
        <ignore-errors value="true"/>
    </processing>

    <random_number>
        <random value="true"/>
    </random_number>

</configuration>
-->

<routes xmlns:xsi="http://www.w3.org/2001/XMLSchema-instance" xsi:noNamespaceSchemaLocation="http://sumo.sf.net/xsd/routes_file.xsd">
    <vehicle id="2" depart="0.20">
        <route edges="0:1 1:5"/>
    </vehicle>
    <vehicle id="3" depart="0.30">
        <route edges="5:1 1:0 0:2"/>
    </vehicle>
    <vehicle id="9" depart="0.90">
        <route edges="0:1 1:5"/>
    </vehicle>
    <vehicle id="14" depart="1.40">
        <route edges="3:1 1:0"/>
    </vehicle>
    <vehicle id="16" depart="1.60">
        <route edges="0:1"/>
    </vehicle>
    <vehicle id="19" depart="1.90">
        <route edges="1:3 3:7"/>
    </vehicle>
    <vehicle id="22" depart="2.20">
        <route edges="7:3 3:1"/>
    </vehicle>
    <vehicle id="23" depart="2.30">
        <route edges="0:1"/>
    </vehicle>
    <vehicle id="24" depart="2.40">
        <route edges="7:3 3:1 1:0"/>
    </vehicle>
    <vehicle id="25" depart="2.50">
        <route edges="6:5 5:1 1:3 3:7"/>
    </vehicle>
    <vehicle id="27" depart="2.70">
        <route edges="7:3 3:1 1:0 0:2"/>
    </vehicle>
    <vehicle id="31" depart="3.10">
        <route edges="1:0"/>
    </vehicle>
    <vehicle id="32" depart="3.20">
        <route edges="2:0 0:1 1:3 3:7"/>
    </vehicle>
    <vehicle id="37" depart="3.70">
        <route edges="1:3 3:7"/>
    </vehicle>
    <vehicle id="38" depart="3.80">
        <route edges="0:1"/>
    </vehicle>
    <vehicle id="40" depart="4.00">
        <route edges="3:1 1:0 0:2"/>
    </vehicle>
    <vehicle id="42" depart="4.20">
        <route edges="2:0 0:1"/>
    </vehicle>
    <vehicle id="43" depart="4.30">
        <route edges="1:3 3:7"/>
    </vehicle>
    <vehicle id="45" depart="4.50">
        <route edges="7:3 3:1 1:0"/>
    </vehicle>
    <vehicle id="49" depart="4.90">
        <route edges="7:3 3:1 1:0 0:2"/>
    </vehicle>
    <vehicle id="51" depart="5.10">
        <route edges="1:3"/>
    </vehicle>
    <vehicle id="53" depart="5.30">
        <route edges="1:3 3:7"/>
    </vehicle>
    <vehicle id="54" depart="5.40">
        <route edges="0:1 1:5"/>
    </vehicle>
    <vehicle id="55" depart="5.50">
        <route edges="2:0 0:1 1:3 3:7"/>
    </vehicle>
    <vehicle id="62" depart="6.20">
        <route edges="3:1 1:0 0:2"/>
    </vehicle>
    <vehicle id="64" depart="6.40">
        <route edges="3:1 1:0"/>
    </vehicle>
    <vehicle id="65" depart="6.50">
        <route edges="7:3 3:1 1:5 5:6"/>
    </vehicle>
    <vehicle id="66" depart="6.60">
        <route edges="5:1 1:0 0:2"/>
    </vehicle>
    <vehicle id="67" depart="6.70">
        <route edges="2:0 0:1 1:5"/>
    </vehicle>
    <vehicle id="68" depart="6.80">
        <route edges="5:1 1:0 0:2"/>
    </vehicle>
    <vehicle id="69" depart="6.90">
        <route edges="2:0 0:1 1:3"/>
    </vehicle>
    <vehicle id="70" depart="7.00">
        <route edges="1:3 3:7"/>
    </vehicle>
    <vehicle id="73" depart="7.30">
        <route edges="7:3 3:1 1:5 5:6"/>
    </vehicle>
    <vehicle id="75" depart="7.50">
        <route edges="1:0 0:2"/>
    </vehicle>
    <vehicle id="76" depart="7.60">
        <route edges="1:5 5:6"/>
    </vehicle>
    <vehicle id="77" depart="7.70">
        <route edges="2:0 0:1 1:3 3:7"/>
    </vehicle>
    <vehicle id="78" depart="7.80">
        <route edges="5:1 1:0 0:2"/>
    </vehicle>
    <vehicle id="79" depart="7.90">
        <route edges="2:0 0:1 1:3 3:7"/>
    </vehicle>
    <vehicle id="80" depart="8.00">
        <route edges="6:5 5:1 1:0 0:2"/>
    </vehicle>
    <vehicle id="81" depart="8.10">
        <route edges="7:3 3:1"/>
    </vehicle>
    <vehicle id="82" depart="8.20">
        <route edges="1:0"/>
    </vehicle>
    <vehicle id="83" depart="8.30">
        <route edges="1:3"/>
    </vehicle>
    <vehicle id="86" depart="8.60">
        <route edges="2:0 0:1 1:3"/>
    </vehicle>
    <vehicle id="87" depart="8.70">
        <route edges="7:3 3:1"/>
    </vehicle>
    <vehicle id="88" depart="8.80">
        <route edges="7:3 3:1"/>
    </vehicle>
    <vehicle id="89" depart="8.90">
        <route edges="0:1 1:5"/>
    </vehicle>
    <vehicle id="90" depart="9.00">
        <route edges="1:0 0:2"/>
    </vehicle>
    <vehicle id="93" depart="9.30">
        <route edges="2:0 0:1 1:5 5:6"/>
    </vehicle>
    <vehicle id="95" depart="9.50">
        <route edges="6:5 5:1 1:3 3:7"/>
    </vehicle>
    <vehicle id="96" depart="9.60">
        <route edges="7:3 3:1 1:0 0:2"/>
    </vehicle>
    <vehicle id="100" depart="10.00">
        <route edges="2:0 0:1 1:5 5:6"/>
    </vehicle>
    <vehicle id="101" depart="10.10">
        <route edges="2:0 0:1 1:5 5:6"/>
    </vehicle>
    <vehicle id="104" depart="10.40">
        <route edges="2:0 0:1 1:5 5:6"/>
    </vehicle>
    <vehicle id="105" depart="10.50">
        <route edges="7:3 3:1 1:0"/>
    </vehicle>
    <vehicle id="106" depart="10.60">
        <route edges="3:1 1:0 0:2"/>
    </vehicle>
    <vehicle id="110" depart="11.00">
        <route edges="1:0 0:2"/>
    </vehicle>
    <vehicle id="111" depart="11.10">
        <route edges="5:1"/>
    </vehicle>
    <vehicle id="112" depart="11.20">
        <route edges="2:0 0:1 1:3 3:7"/>
    </vehicle>
    <vehicle id="114" depart="11.40">
        <route edges="1:0 0:2"/>
    </vehicle>
    <vehicle id="116" depart="11.60">
        <route edges="7:3 3:1 1:0 0:2"/>
    </vehicle>
    <vehicle id="117" depart="11.70">
        <route edges="7:3 3:1 1:0 0:2"/>
    </vehicle>
    <vehicle id="118" depart="11.80">
        <route edges="1:3 3:7"/>
    </vehicle>
    <vehicle id="123" depart="12.30">
        <route edges="0:1"/>
    </vehicle>
    <vehicle id="124" depart="12.40">
        <route edges="2:0 0:1 1:5 5:6"/>
    </vehicle>
    <vehicle id="125" depart="12.50">
        <route edges="1:3 3:7"/>
    </vehicle>
    <vehicle id="126" depart="12.60">
        <route edges="7:3 3:1 1:0 0:2"/>
    </vehicle>
    <vehicle id="128" depart="12.80">
        <route edges="7:3 3:1 1:0 0:2"/>
    </vehicle>
    <vehicle id="129" depart="12.90">
        <route edges="1:0 0:2"/>
    </vehicle>
    <vehicle id="130" depart="13.00">
        <route edges="6:5 5:1"/>
    </vehicle>
    <vehicle id="131" depart="13.10">
        <route edges="2:0 0:1 1:3 3:7"/>
    </vehicle>
    <vehicle id="133" depart="13.30">
        <route edges="6:5 5:1 1:3"/>
    </vehicle>
    <vehicle id="134" depart="13.40">
        <route edges="7:3 3:1 1:0 0:2"/>
    </vehicle>
    <vehicle id="135" depart="13.50">
        <route edges="7:3 3:1 1:0 0:2"/>
    </vehicle>
    <vehicle id="138" depart="13.80">
        <route edges="1:3 3:7"/>
    </vehicle>
    <vehicle id="143" depart="14.30">
        <route edges="6:5 5:1 1:0"/>
    </vehicle>
    <vehicle id="146" depart="14.60">
        <route edges="7:3 3:1 1:0 0:2"/>
    </vehicle>
    <vehicle id="150" depart="15.00">
        <route edges="2:0 0:1 1:5 5:6"/>
    </vehicle>
    <vehicle id="151" depart="15.10">
        <route edges="0:1 1:3 3:7"/>
    </vehicle>
    <vehicle id="155" depart="15.50">
        <route edges="7:3 3:1 1:0 0:2"/>
    </vehicle>
    <vehicle id="156" depart="15.60">
        <route edges="2:0 0:1 1:3 3:7"/>
    </vehicle>
    <vehicle id="158" depart="15.80">
        <route edges="2:0 0:1 1:3 3:7"/>
    </vehicle>
    <vehicle id="159" depart="15.90">
        <route edges="2:0 0:1 1:3 3:7"/>
    </vehicle>
    <vehicle id="163" depart="16.30">
        <route edges="6:5 5:1 1:3 3:7"/>
    </vehicle>
    <vehicle id="166" depart="16.60">
        <route edges="5:1 1:0"/>
    </vehicle>
    <vehicle id="168" depart="16.80">
        <route edges="0:1 1:3 3:7"/>
    </vehicle>
    <vehicle id="170" depart="17.00">
        <route edges="0:1 1:5 5:6"/>
    </vehicle>
    <vehicle id="171" depart="17.10">
        <route edges="6:5 5:1 1:0 0:2"/>
    </vehicle>
    <vehicle id="172" depart="17.20">
        <route edges="6:5 5:1 1:0 0:2"/>
    </vehicle>
    <vehicle id="173" depart="17.30">
        <route edges="7:3 3:1 1:0 0:2"/>
    </vehicle>
    <vehicle id="175" depart="17.50">
        <route edges="7:3 3:1 1:0 0:2"/>
    </vehicle>
    <vehicle id="176" depart="17.60">
        <route edges="7:3 3:1 1:0"/>
    </vehicle>
    <vehicle id="177" depart="17.70">
        <route edges="6:5 5:1 1:3 3:7"/>
    </vehicle>
    <vehicle id="179" depart="17.90">
        <route edges="0:1 1:5 5:6"/>
    </vehicle>
    <vehicle id="181" depart="18.10">
        <route edges="2:0 0:1 1:3 3:7"/>
    </vehicle>
    <vehicle id="182" depart="18.20">
        <route edges="7:3 3:1"/>
    </vehicle>
    <vehicle id="185" depart="18.50">
        <route edges="1:3 3:7"/>
    </vehicle>
    <vehicle id="191" depart="19.10">
        <route edges="1:3 3:7"/>
    </vehicle>
    <vehicle id="193" depart="19.30">
        <route edges="6:5 5:1 1:3 3:7"/>
    </vehicle>
    <vehicle id="195" depart="19.50">
        <route edges="7:3 3:1 1:0"/>
    </vehicle>
    <vehicle id="196" depart="19.60">
        <route edges="3:1 1:5"/>
    </vehicle>
    <vehicle id="197" depart="19.70">
        <route edges="1:0 0:2"/>
    </vehicle>
    <vehicle id="199" depart="19.90">
        <route edges="2:0 0:1"/>
    </vehicle>
    <vehicle id="200" depart="20.00">
        <route edges="6:5 5:1 1:0 0:2"/>
    </vehicle>
    <vehicle id="204" depart="20.40">
        <route edges="2:0 0:1 1:3"/>
    </vehicle>
    <vehicle id="206" depart="20.60">
        <route edges="3:1 1:0 0:2"/>
    </vehicle>
    <vehicle id="207" depart="20.70">
        <route edges="5:1 1:0 0:2"/>
    </vehicle>
    <vehicle id="210" depart="21.00">
        <route edges="3:1 1:0 0:2"/>
    </vehicle>
    <vehicle id="212" depart="21.20">
        <route edges="7:3 3:1 1:5 5:6"/>
    </vehicle>
    <vehicle id="213" depart="21.30">
        <route edges="2:0 0:1"/>
    </vehicle>
    <vehicle id="215" depart="21.50">
        <route edges="2:0 0:1 1:3 3:7"/>
    </vehicle>
    <vehicle id="217" depart="21.70">
        <route edges="1:0 0:2"/>
    </vehicle>
    <vehicle id="218" depart="21.80">
        <route edges="2:0 0:1 1:5 5:6"/>
    </vehicle>
    <vehicle id="222" depart="22.20">
        <route edges="2:0 0:1"/>
    </vehicle>
    <vehicle id="225" depart="22.50">
        <route edges="2:0 0:1 1:5"/>
    </vehicle>
    <vehicle id="226" depart="22.60">
        <route edges="0:1 1:3 3:7"/>
    </vehicle>
    <vehicle id="232" depart="23.20">
        <route edges="3:1 1:0 0:2"/>
    </vehicle>
    <vehicle id="235" depart="23.50">
        <route edges="1:3 3:7"/>
    </vehicle>
    <vehicle id="240" depart="24.00">
        <route edges="7:3 3:1 1:0 0:2"/>
    </vehicle>
    <vehicle id="242" depart="24.20">
        <route edges="1:3"/>
    </vehicle>
    <vehicle id="243" depart="24.30">
        <route edges="0:1 1:3 3:7"/>
    </vehicle>
    <vehicle id="244" depart="24.40">
        <route edges="2:0 0:1 1:3 3:7"/>
    </vehicle>
    <vehicle id="245" depart="24.50">
        <route edges="2:0 0:1"/>
    </vehicle>
    <vehicle id="246" depart="24.60">
        <route edges="7:3 3:1 1:0"/>
    </vehicle>
    <vehicle id="247" depart="24.70">
        <route edges="0:1 1:3 3:7"/>
    </vehicle>
    <vehicle id="252" depart="25.20">
        <route edges="6:5 5:1 1:3 3:7"/>
    </vehicle>
    <vehicle id="255" depart="25.50">
        <route edges="5:1 1:3 3:7"/>
    </vehicle>
    <vehicle id="256" depart="25.60">
        <route edges="2:0 0:1"/>
    </vehicle>
    <vehicle id="261" depart="26.10">
        <route edges="2:0 0:1 1:3"/>
    </vehicle>
    <vehicle id="263" depart="26.30">
        <route edges="3:1 1:5 5:6"/>
    </vehicle>
    <vehicle id="264" depart="26.40">
        <route edges="2:0 0:1 1:3 3:7"/>
    </vehicle>
    <vehicle id="265" depart="26.50">
        <route edges="3:1 1:0 0:2"/>
    </vehicle>
    <vehicle id="266" depart="26.60">
        <route edges="1:3 3:7"/>
    </vehicle>
    <vehicle id="270" depart="27.00">
        <route edges="7:3 3:1 1:0"/>
    </vehicle>
    <vehicle id="271" depart="27.10">
        <route edges="3:1 1:0 0:2"/>
    </vehicle>
    <vehicle id="272" depart="27.20">
        <route edges="0:1 1:3 3:7"/>
    </vehicle>
    <vehicle id="273" depart="27.30">
        <route edges="1:0 0:2"/>
    </vehicle>
    <vehicle id="274" depart="27.40">
        <route edges="7:3 3:1"/>
    </vehicle>
    <vehicle id="276" depart="27.60">
        <route edges="1:0 0:2"/>
    </vehicle>
    <vehicle id="281" depart="28.10">
        <route edges="0:1 1:3 3:7"/>
    </vehicle>
    <vehicle id="284" depart="28.40">
        <route edges="2:0 0:1 1:3 3:7"/>
    </vehicle>
    <vehicle id="287" depart="28.70">
        <route edges="5:1 1:3 3:7"/>
    </vehicle>
    <vehicle id="288" depart="28.80">
        <route edges="2:0 0:1 1:3"/>
    </vehicle>
    <vehicle id="290" depart="29.00">
        <route edges="2:0 0:1 1:3 3:7"/>
    </vehicle>
    <vehicle id="292" depart="29.20">
        <route edges="3:1 1:5 5:6"/>
    </vehicle>
    <vehicle id="294" depart="29.40">
        <route edges="3:1 1:0 0:2"/>
    </vehicle>
    <vehicle id="297" depart="29.70">
        <route edges="6:5 5:1 1:3 3:7"/>
    </vehicle>
    <vehicle id="301" depart="30.10">
        <route edges="2:0 0:1"/>
    </vehicle>
    <vehicle id="302" depart="30.20">
        <route edges="6:5 5:1 1:0 0:2"/>
    </vehicle>
    <vehicle id="304" depart="30.40">
        <route edges="2:0 0:1 1:3 3:7"/>
    </vehicle>
    <vehicle id="305" depart="30.50">
        <route edges="7:3 3:1 1:5"/>
    </vehicle>
    <vehicle id="306" depart="30.60">
        <route edges="5:1 1:0 0:2"/>
    </vehicle>
    <vehicle id="308" depart="30.80">
        <route edges="0:1"/>
    </vehicle>
    <vehicle id="312" depart="31.20">
        <route edges="6:5 5:1 1:0"/>
    </vehicle>
    <vehicle id="314" depart="31.40">
        <route edges="1:0"/>
    </vehicle>
    <vehicle id="317" depart="31.70">
        <route edges="7:3 3:1 1:0 0:2"/>
    </vehicle>
    <vehicle id="320" depart="32.00">
        <route edges="7:3 3:1 1:5 5:6"/>
    </vehicle>
    <vehicle id="321" depart="32.10">
        <route edges="7:3 3:1 1:0 0:2"/>
    </vehicle>
    <vehicle id="322" depart="32.20">
        <route edges="7:3 3:1 1:0"/>
    </vehicle>
    <vehicle id="323" depart="32.30">
        <route edges="1:0 0:2"/>
    </vehicle>
    <vehicle id="327" depart="32.70">
        <route edges="7:3 3:1"/>
    </vehicle>
    <vehicle id="331" depart="33.10">
        <route edges="7:3 3:1 1:0"/>
    </vehicle>
    <vehicle id="334" depart="33.40">
        <route edges="0:1 1:3 3:7"/>
    </vehicle>
    <vehicle id="335" depart="33.50">
        <route edges="7:3 3:1 1:0 0:2"/>
    </vehicle>
    <vehicle id="338" depart="33.80">
        <route edges="6:5 5:1 1:3 3:7"/>
    </vehicle>
    <vehicle id="339" depart="33.90">
        <route edges="1:0 0:2"/>
    </vehicle>
    <vehicle id="340" depart="34.00">
        <route edges="2:0 0:1 1:3 3:7"/>
    </vehicle>
    <vehicle id="342" depart="34.20">
        <route edges="7:3 3:1"/>
    </vehicle>
    <vehicle id="343" depart="34.30">
        <route edges="6:5 5:1 1:3 3:7"/>
    </vehicle>
    <vehicle id="345" depart="34.50">
        <route edges="1:0 0:2"/>
    </vehicle>
    <vehicle id="346" depart="34.60">
        <route edges="6:5 5:1 1:0 0:2"/>
    </vehicle>
    <vehicle id="348" depart="34.80">
        <route edges="0:1 1:5"/>
    </vehicle>
    <vehicle id="352" depart="35.20">
        <route edges="5:1 1:0 0:2"/>
    </vehicle>
    <vehicle id="353" depart="35.30">
        <route edges="6:5 5:1 1:0 0:2"/>
    </vehicle>
    <vehicle id="355" depart="35.50">
        <route edges="1:0 0:2"/>
    </vehicle>
    <vehicle id="359" depart="35.90">
        <route edges="7:3 3:1 1:0 0:2"/>
    </vehicle>
    <vehicle id="360" depart="36.00">
        <route edges="0:1 1:3"/>
    </vehicle>
    <vehicle id="361" depart="36.10">
        <route edges="1:5"/>
    </vehicle>
    <vehicle id="364" depart="36.40">
        <route edges="7:3 3:1 1:5 5:6"/>
    </vehicle>
    <vehicle id="366" depart="36.60">
        <route edges="5:1 1:3 3:7"/>
    </vehicle>
    <vehicle id="368" depart="36.80">
        <route edges="2:0 0:1 1:5 5:6"/>
    </vehicle>
    <vehicle id="369" depart="36.90">
        <route edges="2:0 0:1 1:3"/>
    </vehicle>
    <vehicle id="371" depart="37.10">
        <route edges="7:3 3:1 1:0"/>
    </vehicle>
    <vehicle id="372" depart="37.20">
        <route edges="3:1"/>
    </vehicle>
    <vehicle id="374" depart="37.40">
        <route edges="3:1"/>
    </vehicle>
    <vehicle id="375" depart="37.50">
        <route edges="1:5"/>
    </vehicle>
    <vehicle id="376" depart="37.60">
        <route edges="2:0 0:1"/>
    </vehicle>
    <vehicle id="377" depart="37.70">
        <route edges="7:3 3:1 1:0 0:2"/>
    </vehicle>
    <vehicle id="379" depart="37.90">
        <route edges="7:3 3:1 1:5"/>
    </vehicle>
    <vehicle id="381" depart="38.10">
        <route edges="3:1 1:0 0:2"/>
    </vehicle>
    <vehicle id="382" depart="38.20">
        <route edges="2:0 0:1 1:3 3:7"/>
    </vehicle>
    <vehicle id="383" depart="38.30">
        <route edges="1:3"/>
    </vehicle>
    <vehicle id="387" depart="38.70">
        <route edges="0:1 1:3"/>
    </vehicle>
    <vehicle id="389" depart="38.90">
        <route edges="7:3 3:1 1:0 0:2"/>
    </vehicle>
    <vehicle id="390" depart="39.00">
        <route edges="7:3 3:1 1:0"/>
    </vehicle>
    <vehicle id="391" depart="39.10">
        <route edges="2:0 0:1 1:5"/>
    </vehicle>
    <vehicle id="392" depart="39.20">
        <route edges="1:0 0:2"/>
    </vehicle>
    <vehicle id="393" depart="39.30">
        <route edges="7:3 3:1 1:0"/>
    </vehicle>
    <vehicle id="394" depart="39.40">
        <route edges="5:1 1:0"/>
    </vehicle>
    <vehicle id="395" depart="39.50">
        <route edges="0:1 1:3 3:7"/>
    </vehicle>
    <vehicle id="397" depart="39.70">
        <route edges="2:0 0:1 1:3 3:7"/>
    </vehicle>
    <vehicle id="398" depart="39.80">
        <route edges="7:3 3:1 1:0"/>
    </vehicle>
    <vehicle id="401" depart="40.10">
        <route edges="2:0 0:1 1:3 3:7"/>
    </vehicle>
    <vehicle id="402" depart="40.20">
        <route edges="3:1 1:0 0:2"/>
    </vehicle>
    <vehicle id="403" depart="40.30">
        <route edges="1:3 3:7"/>
    </vehicle>
    <vehicle id="404" depart="40.40">
        <route edges="0:1 1:3 3:7"/>
    </vehicle>
    <vehicle id="405" depart="40.50">
        <route edges="2:0 0:1 1:5"/>
    </vehicle>
    <vehicle id="407" depart="40.70">
        <route edges="2:0 0:1 1:3"/>
    </vehicle>
    <vehicle id="409" depart="40.90">
        <route edges="7:3 3:1"/>
    </vehicle>
    <vehicle id="410" depart="41.00">
        <route edges="3:1 1:5 5:6"/>
    </vehicle>
    <vehicle id="411" depart="41.10">
        <route edges="2:0 0:1 1:3"/>
    </vehicle>
    <vehicle id="419" depart="41.90">
        <route edges="7:3 3:1"/>
    </vehicle>
    <vehicle id="420" depart="42.00">
        <route edges="1:0"/>
    </vehicle>
    <vehicle id="421" depart="42.10">
        <route edges="2:0 0:1 1:3"/>
    </vehicle>
    <vehicle id="423" depart="42.30">
        <route edges="3:1"/>
    </vehicle>
    <vehicle id="424" depart="42.40">
        <route edges="0:1 1:3 3:7"/>
    </vehicle>
    <vehicle id="425" depart="42.50">
        <route edges="3:1 1:0 0:2"/>
    </vehicle>
    <vehicle id="427" depart="42.70">
        <route edges="7:3 3:1 1:5 5:6"/>
    </vehicle>
    <vehicle id="428" depart="42.80">
        <route edges="3:1 1:0 0:2"/>
    </vehicle>
    <vehicle id="429" depart="42.90">
        <route edges="6:5 5:1 1:0 0:2"/>
    </vehicle>
    <vehicle id="431" depart="43.10">
        <route edges="1:0 0:2"/>
    </vehicle>
    <vehicle id="432" depart="43.20">
        <route edges="1:0"/>
    </vehicle>
    <vehicle id="433" depart="43.30">
        <route edges="1:3"/>
    </vehicle>
    <vehicle id="435" depart="43.50">
        <route edges="1:0 0:2"/>
    </vehicle>
    <vehicle id="437" depart="43.70">
        <route edges="1:3"/>
    </vehicle>
    <vehicle id="438" depart="43.80">
        <route edges="6:5 5:1 1:0"/>
    </vehicle>
    <vehicle id="440" depart="44.00">
        <route edges="6:5 5:1 1:0 0:2"/>
    </vehicle>
    <vehicle id="444" depart="44.40">
        <route edges="6:5 5:1 1:3 3:7"/>
    </vehicle>
    <vehicle id="445" depart="44.50">
        <route edges="7:3 3:1 1:5 5:6"/>
    </vehicle>
    <vehicle id="447" depart="44.70">
        <route edges="2:0 0:1 1:3"/>
    </vehicle>
    <vehicle id="449" depart="44.90">
        <route edges="6:5 5:1 1:0 0:2"/>
    </vehicle>
    <vehicle id="451" depart="45.10">
        <route edges="6:5 5:1 1:0 0:2"/>
    </vehicle>
    <vehicle id="452" depart="45.20">
        <route edges="2:0 0:1 1:3 3:7"/>
    </vehicle>
    <vehicle id="456" depart="45.60">
        <route edges="0:1"/>
    </vehicle>
    <vehicle id="457" depart="45.70">
        <route edges="7:3 3:1 1:5"/>
    </vehicle>
    <vehicle id="458" depart="45.80">
        <route edges="2:0 0:1"/>
    </vehicle>
    <vehicle id="459" depart="45.90">
        <route edges="5:1 1:3 3:7"/>
    </vehicle>
    <vehicle id="460" depart="46.00">
        <route edges="3:1 1:0 0:2"/>
    </vehicle>
    <vehicle id="461" depart="46.10">
        <route edges="2:0 0:1 1:3"/>
    </vehicle>
    <vehicle id="463" depart="46.30">
        <route edges="2:0 0:1 1:5 5:6"/>
    </vehicle>
    <vehicle id="464" depart="46.40">
        <route edges="1:3 3:7"/>
    </vehicle>
    <vehicle id="465" depart="46.50">
        <route edges="5:1 1:0 0:2"/>
    </vehicle>
    <vehicle id="468" depart="46.80">
        <route edges="5:1 1:0 0:2"/>
    </vehicle>
    <vehicle id="469" depart="46.90">
        <route edges="7:3 3:1 1:0 0:2"/>
    </vehicle>
    <vehicle id="477" depart="47.70">
        <route edges="2:0 0:1 1:3"/>
    </vehicle>
    <vehicle id="480" depart="48.00">
        <route edges="2:0 0:1 1:3"/>
    </vehicle>
    <vehicle id="481" depart="48.10">
        <route edges="2:0 0:1 1:5 5:6"/>
    </vehicle>
    <vehicle id="484" depart="48.40">
        <route edges="1:5 5:6"/>
    </vehicle>
    <vehicle id="486" depart="48.60">
        <route edges="6:5 5:1 1:3 3:7"/>
    </vehicle>
    <vehicle id="487" depart="48.70">
        <route edges="6:5 5:1 1:3 3:7"/>
    </vehicle>
    <vehicle id="489" depart="48.90">
        <route edges="7:3 3:1"/>
    </vehicle>
    <vehicle id="490" depart="49.00">
        <route edges="6:5 5:1 1:3"/>
    </vehicle>
    <vehicle id="491" depart="49.10">
        <route edges="3:1 1:5 5:6"/>
    </vehicle>
    <vehicle id="494" depart="49.40">
        <route edges="2:0 0:1 1:5 5:6"/>
    </vehicle>
    <vehicle id="497" depart="49.70">
        <route edges="7:3 3:1 1:0 0:2"/>
    </vehicle>
    <vehicle id="500" depart="50.00">
        <route edges="7:3 3:1 1:0 0:2"/>
    </vehicle>
    <vehicle id="503" depart="50.30">
        <route edges="6:5 5:1 1:3 3:7"/>
    </vehicle>
    <vehicle id="504" depart="50.40">
        <route edges="1:0 0:2"/>
    </vehicle>
    <vehicle id="506" depart="50.60">
        <route edges="6:5 5:1 1:0"/>
    </vehicle>
    <vehicle id="507" depart="50.70">
        <route edges="3:1 1:0 0:2"/>
    </vehicle>
    <vehicle id="509" depart="50.90">
        <route edges="5:1 1:0"/>
    </vehicle>
    <vehicle id="512" depart="51.20">
        <route edges="6:5 5:1 1:3 3:7"/>
    </vehicle>
    <vehicle id="516" depart="51.60">
        <route edges="7:3 3:1 1:0"/>
    </vehicle>
    <vehicle id="518" depart="51.80">
        <route edges="1:0 0:2"/>
    </vehicle>
    <vehicle id="519" depart="51.90">
        <route edges="1:3 3:7"/>
    </vehicle>
    <vehicle id="520" depart="52.00">
        <route edges="6:5 5:1 1:3 3:7"/>
    </vehicle>
    <vehicle id="523" depart="52.30">
        <route edges="7:3 3:1"/>
    </vehicle>
    <vehicle id="525" depart="52.50">
        <route edges="0:1"/>
    </vehicle>
    <vehicle id="527" depart="52.70">
        <route edges="7:3 3:1 1:0 0:2"/>
    </vehicle>
    <vehicle id="529" depart="52.90">
        <route edges="5:1 1:0 0:2"/>
    </vehicle>
    <vehicle id="535" depart="53.50">
        <route edges="7:3 3:1 1:5 5:6"/>
    </vehicle>
    <vehicle id="537" depart="53.70">
        <route edges="1:0"/>
    </vehicle>
    <vehicle id="539" depart="53.90">
        <route edges="7:3 3:1 1:0"/>
    </vehicle>
    <vehicle id="541" depart="54.10">
        <route edges="6:5 5:1 1:3"/>
    </vehicle>
    <vehicle id="542" depart="54.20">
        <route edges="7:3 3:1 1:5"/>
    </vehicle>
    <vehicle id="545" depart="54.50">
        <route edges="2:0 0:1 1:3"/>
    </vehicle>
    <vehicle id="547" depart="54.70">
        <route edges="2:0 0:1 1:3 3:7"/>
    </vehicle>
    <vehicle id="548" depart="54.80">
        <route edges="2:0 0:1 1:3 3:7"/>
    </vehicle>
    <vehicle id="550" depart="55.00">
        <route edges="6:5 5:1 1:3"/>
    </vehicle>
    <vehicle id="551" depart="55.10">
        <route edges="3:1"/>
    </vehicle>
    <vehicle id="553" depart="55.30">
        <route edges="2:0 0:1 1:3 3:7"/>
    </vehicle>
    <vehicle id="555" depart="55.50">
        <route edges="3:1 1:0"/>
    </vehicle>
    <vehicle id="557" depart="55.70">
        <route edges="3:1"/>
    </vehicle>
    <vehicle id="558" depart="55.80">
        <route edges="3:1 1:5 5:6"/>
    </vehicle>
    <vehicle id="561" depart="56.10">
        <route edges="2:0 0:1 1:5 5:6"/>
    </vehicle>
    <vehicle id="562" depart="56.20">
        <route edges="2:0 0:1 1:3 3:7"/>
    </vehicle>
    <vehicle id="564" depart="56.40">
        <route edges="2:0 0:1"/>
    </vehicle>
    <vehicle id="565" depart="56.50">
        <route edges="2:0 0:1 1:5"/>
    </vehicle>
    <vehicle id="567" depart="56.70">
        <route edges="6:5 5:1 1:0 0:2"/>
    </vehicle>
    <vehicle id="572" depart="57.20">
        <route edges="2:0 0:1 1:3 3:7"/>
    </vehicle>
    <vehicle id="574" depart="57.40">
        <route edges="2:0 0:1 1:5 5:6"/>
    </vehicle>
    <vehicle id="575" depart="57.50">
        <route edges="1:0 0:2"/>
    </vehicle>
    <vehicle id="576" depart="57.60">
        <route edges="0:1 1:5 5:6"/>
    </vehicle>
    <vehicle id="577" depart="57.70">
        <route edges="2:0 0:1 1:3 3:7"/>
    </vehicle>
    <vehicle id="578" depart="57.80">
        <route edges="2:0 0:1 1:5"/>
    </vehicle>
    <vehicle id="580" depart="58.00">
        <route edges="2:0 0:1 1:3"/>
    </vehicle>
    <vehicle id="582" depart="58.20">
        <route edges="7:3 3:1 1:5 5:6"/>
    </vehicle>
    <vehicle id="593" depart="59.30">
        <route edges="2:0 0:1 1:3"/>
    </vehicle>
    <vehicle id="595" depart="59.50">
        <route edges="2:0 0:1 1:5"/>
    </vehicle>
    <vehicle id="596" depart="59.60">
        <route edges="2:0 0:1 1:3"/>
    </vehicle>
    <vehicle id="597" depart="59.70">
        <route edges="2:0 0:1 1:3 3:7"/>
    </vehicle>
    <vehicle id="598" depart="59.80">
        <route edges="7:3 3:1 1:0 0:2"/>
    </vehicle>
    <vehicle id="599" depart="59.90">
        <route edges="1:3 3:7"/>
    </vehicle>
    <vehicle id="600" depart="60.00">
        <route edges="7:3 3:1 1:0 0:2"/>
    </vehicle>
    <vehicle id="602" depart="60.20">
        <route edges="1:3 3:7"/>
    </vehicle>
    <vehicle id="603" depart="60.30">
        <route edges="2:0 0:1 1:3 3:7"/>
    </vehicle>
    <vehicle id="604" depart="60.40">
        <route edges="6:5 5:1 1:0 0:2"/>
    </vehicle>
    <vehicle id="611" depart="61.10">
        <route edges="7:3 3:1"/>
    </vehicle>
    <vehicle id="612" depart="61.20">
        <route edges="1:0"/>
    </vehicle>
    <vehicle id="615" depart="61.50">
        <route edges="0:1 1:3"/>
    </vehicle>
    <vehicle id="617" depart="61.70">
        <route edges="1:3 3:7"/>
    </vehicle>
    <vehicle id="620" depart="62.00">
        <route edges="5:1 1:0 0:2"/>
    </vehicle>
    <vehicle id="621" depart="62.10">
        <route edges="6:5 5:1 1:3 3:7"/>
    </vehicle>
    <vehicle id="622" depart="62.20">
        <route edges="2:0 0:1 1:5 5:6"/>
    </vehicle>
    <vehicle id="624" depart="62.40">
        <route edges="7:3 3:1 1:0 0:2"/>
    </vehicle>
    <vehicle id="626" depart="62.60">
        <route edges="3:1"/>
    </vehicle>
    <vehicle id="629" depart="62.90">
        <route edges="7:3 3:1 1:0"/>
    </vehicle>
    <vehicle id="630" depart="63.00">
        <route edges="7:3 3:1 1:0 0:2"/>
    </vehicle>
    <vehicle id="635" depart="63.50">
        <route edges="3:1 1:0"/>
    </vehicle>
    <vehicle id="636" depart="63.60">
        <route edges="3:1 1:0 0:2"/>
    </vehicle>
    <vehicle id="637" depart="63.70">
        <route edges="6:5 5:1 1:3 3:7"/>
    </vehicle>
    <vehicle id="639" depart="63.90">
        <route edges="2:0 0:1 1:5 5:6"/>
    </vehicle>
    <vehicle id="641" depart="64.10">
        <route edges="1:3 3:7"/>
    </vehicle>
    <vehicle id="642" depart="64.20">
        <route edges="2:0 0:1 1:5 5:6"/>
    </vehicle>
    <vehicle id="644" depart="64.40">
        <route edges="6:5 5:1 1:3 3:7"/>
    </vehicle>
    <vehicle id="645" depart="64.50">
        <route edges="7:3 3:1 1:5 5:6"/>
    </vehicle>
    <vehicle id="647" depart="64.70">
        <route edges="7:3 3:1 1:5 5:6"/>
    </vehicle>