<?xml version="1.0" encoding="UTF-8"?>

<!-- generated on Thu Feb 13 12:39:51 2014 by SUMO duarouter Version 0.18.0
<?xml version="1.0" encoding="UTF-8"?>

<configuration xmlns:xsi="http://www.w3.org/2001/XMLSchema-instance" xsi:noNamespaceSchemaLocation="http://sumo.sf.net/xsd/duarouterConfiguration.xsd">

    <input>
        <net-file value="simpleT.net.xml"/>
        <trip-files value="experimentos/simpleT.p1.0.3.trips.xml"/>
    </input>

    <output>
        <output-file value="experimentos/simpleT.p1.0.3.rou.xml"/>
    </output>

    <processing>
        <ignore-errors value="true"/>
    </processing>

    <random_number>
        <random value="true"/>
    </random_number>

</configuration>
-->

<routes xmlns:xsi="http://www.w3.org/2001/XMLSchema-instance" xsi:noNamespaceSchemaLocation="http://sumo.sf.net/xsd/routes_file.xsd">
    <vehicle id="0" depart="0.00">
        <route edges="2:0 0:1 1:3"/>
    </vehicle>
    <vehicle id="3" depart="3.00">
        <route edges="7:3 3:1 1:5 5:6"/>
    </vehicle>
    <vehicle id="10" depart="10.00">
        <route edges="7:3 3:1"/>
    </vehicle>
    <vehicle id="12" depart="12.00">
        <route edges="3:1 1:0"/>
    </vehicle>
    <vehicle id="13" depart="13.00">
        <route edges="2:0 0:1 1:5 5:6"/>
    </vehicle>
    <vehicle id="15" depart="15.00">
        <route edges="2:0 0:1 1:3 3:7"/>
    </vehicle>
    <vehicle id="16" depart="16.00">
        <route edges="6:5 5:1 1:0 0:2"/>
    </vehicle>
    <vehicle id="24" depart="24.00">
        <route edges="7:3 3:1 1:0 0:2"/>
    </vehicle>
    <vehicle id="25" depart="25.00">
        <route edges="0:1 1:5 5:6"/>
    </vehicle>
    <vehicle id="26" depart="26.00">
        <route edges="1:3 3:7"/>
    </vehicle>
    <vehicle id="27" depart="27.00">
        <route edges="0:1 1:5 5:6"/>
    </vehicle>
    <vehicle id="28" depart="28.00">
        <route edges="1:0 0:2"/>
    </vehicle>
    <vehicle id="32" depart="32.00">
        <route edges="2:0 0:1"/>
    </vehicle>
    <vehicle id="33" depart="33.00">
        <route edges="6:5 5:1 1:3"/>
    </vehicle>
    <vehicle id="34" depart="34.00">
        <route edges="3:1 1:5 5:6"/>
    </vehicle>
    <vehicle id="35" depart="35.00">
        <route edges="7:3 3:1"/>
    </vehicle>
    <vehicle id="37" depart="37.00">
        <route edges="1:0 0:2"/>
    </vehicle>
    <vehicle id="41" depart="41.00">
        <route edges="0:1"/>
    </vehicle>
    <vehicle id="45" depart="45.00">
        <route edges="7:3 3:1 1:0"/>
    </vehicle>
    <vehicle id="46" depart="46.00">
        <route edges="0:1"/>
    </vehicle>
    <vehicle id="47" depart="47.00">
        <route edges="0:1 1:3 3:7"/>
    </vehicle>
    <vehicle id="48" depart="48.00">
        <route edges="7:3 3:1"/>
    </vehicle>
    <vehicle id="53" depart="53.00">
        <route edges="2:0 0:1 1:5"/>
    </vehicle>
    <vehicle id="58" depart="58.00">
        <route edges="7:3 3:1 1:5"/>
    </vehicle>
    <vehicle id="63" depart="63.00">
        <route edges="2:0 0:1 1:3 3:7"/>
    </vehicle>
    <vehicle id="64" depart="64.00">
        <route edges="2:0 0:1 1:3"/>
    </vehicle>
    <vehicle id="65" depart="65.00">
        <route edges="5:1 1:0 0:2"/>
    </vehicle>
    <vehicle id="66" depart="66.00">
        <route edges="3:1 1:5 5:6"/>
    </vehicle>
    <vehicle id="68" depart="68.00">
        <route edges="2:0 0:1 1:5"/>
    </vehicle>
    <vehicle id="69" depart="69.00">
        <route edges="1:0"/>
    </vehicle>
    <vehicle id="70" depart="70.00">
        <route edges="3:1 1:0 0:2"/>
    </vehicle>
    <vehicle id="72" depart="72.00">
        <route edges="2:0 0:1"/>
    </vehicle>
    <vehicle id="74" depart="74.00">
        <route edges="0:1 1:5 5:6"/>
    </vehicle>
    <vehicle id="80" depart="80.00">
        <route edges="2:0 0:1 1:5 5:6"/>
    </vehicle>
    <vehicle id="85" depart="85.00">
        <route edges="3:1 1:0"/>
    </vehicle>
    <vehicle id="86" depart="86.00">
        <route edges="1:3 3:7"/>
    </vehicle>
    <vehicle id="87" depart="87.00">
        <route edges="7:3 3:1 1:0 0:2"/>
    </vehicle>
    <vehicle id="89" depart="89.00">
        <route edges="7:3 3:1 1:0"/>
    </vehicle>
    <vehicle id="90" depart="90.00">
        <route edges="2:0 0:1"/>
    </vehicle>
    <vehicle id="94" depart="94.00">
        <route edges="7:3 3:1 1:0"/>
    </vehicle>
    <vehicle id="96" depart="96.00">
        <route edges="7:3 3:1"/>
    </vehicle>
    <vehicle id="97" depart="97.00">
        <route edges="2:0 0:1"/>
    </vehicle>
    <vehicle id="98" depart="98.00">
        <route edges="0:1 1:3"/>
    </vehicle>
    <vehicle id="101" depart="101.00">
        <route edges="3:1"/>
    </vehicle>
    <vehicle id="102" depart="102.00">
        <route edges="1:0 0:2"/>
    </vehicle>
    <vehicle id="105" depart="105.00">
        <route edges="6:5 5:1 1:0"/>
    </vehicle>
    <vehicle id="106" depart="106.00">
        <route edges="0:1 1:5"/>
    </vehicle>
    <vehicle id="109" depart="109.00">
        <route edges="2:0 0:1 1:3 3:7"/>
    </vehicle>
    <vehicle id="111" depart="111.00">
        <route edges="2:0 0:1 1:3 3:7"/>
    </vehicle>
    <vehicle id="112" depart="112.00">
        <route edges="3:1 1:5 5:6"/>
    </vehicle>
    <vehicle id="115" depart="115.00">
        <route edges="2:0 0:1 1:3"/>
    </vehicle>
    <vehicle id="120" depart="120.00">
        <route edges="7:3 3:1 1:5"/>
    </vehicle>
    <vehicle id="122" depart="122.00">
        <route edges="0:1 1:5"/>
    </vehicle>
    <vehicle id="124" depart="124.00">
        <route edges="6:5 5:1 1:3 3:7"/>
    </vehicle>
    <vehicle id="125" depart="125.00">
        <route edges="3:1 1:0 0:2"/>
    </vehicle>
    <vehicle id="128" depart="128.00">
        <route edges="7:3 3:1"/>
    </vehicle>
    <vehicle id="132" depart="132.00">
        <route edges="7:3 3:1 1:5"/>
    </vehicle>
    <vehicle id="133" depart="133.00">
        <route edges="3:1 1:0 0:2"/>
    </vehicle>
    <vehicle id="137" depart="137.00">
        <route edges="2:0 0:1 1:3 3:7"/>
    </vehicle>
    <vehicle id="138" depart="138.00">
        <route edges="2:0 0:1"/>
    </vehicle>
    <vehicle id="139" depart="139.00">
        <route edges="7:3 3:1 1:5 5:6"/>
    </vehicle>
    <vehicle id="140" depart="140.00">
        <route edges="7:3 3:1 1:0"/>
    </vehicle>
    <vehicle id="141" depart="141.00">
        <route edges="5:1 1:3 3:7"/>
    </vehicle>
    <vehicle id="142" depart="142.00">
        <route edges="7:3 3:1"/>
    </vehicle>
    <vehicle id="144" depart="144.00">
        <route edges="2:0 0:1"/>
    </vehicle>
    <vehicle id="146" depart="146.00">
        <route edges="2:0 0:1 1:3 3:7"/>
    </vehicle>
    <vehicle id="148" depart="148.00">
        <route edges="7:3 3:1 1:0 0:2"/>
    </vehicle>
    <vehicle id="151" depart="151.00">
        <route edges="7:3 3:1 1:0 0:2"/>
    </vehicle>
    <vehicle id="152" depart="152.00">
        <route edges="0:1 1:3 3:7"/>
    </vehicle>
    <vehicle id="153" depart="153.00">
        <route edges="2:0 0:1 1:3 3:7"/>
    </vehicle>
    <vehicle id="154" depart="154.00">
        <route edges="1:0"/>
    </vehicle>
    <vehicle id="155" depart="155.00">
        <route edges="0:1 1:5 5:6"/>
    </vehicle>
    <vehicle id="156" depart="156.00">
        <route edges="3:1 1:0 0:2"/>
    </vehicle>
    <vehicle id="159" depart="159.00">
        <route edges="6:5 5:1 1:0 0:2"/>
    </vehicle>
    <vehicle id="165" depart="165.00">
        <route edges="6:5 5:1 1:0 0:2"/>
    </vehicle>
    <vehicle id="169" depart="169.00">
        <route edges="2:0 0:1 1:3 3:7"/>
    </vehicle>
    <vehicle id="170" depart="170.00">
        <route edges="2:0 0:1"/>
    </vehicle>
    <vehicle id="171" depart="171.00">
        <route edges="1:0 0:2"/>
    </vehicle>
    <vehicle id="172" depart="172.00">
        <route edges="1:0"/>
    </vehicle>
    <vehicle id="179" depart="179.00">
        <route edges="7:3 3:1 1:5"/>
    </vehicle>
    <vehicle id="180" depart="180.00">
        <route edges="3:1 1:0 0:2"/>
    </vehicle>
    <vehicle id="183" depart="183.00">
        <route edges="1:3 3:7"/>
    </vehicle>
    <vehicle id="185" depart="185.00">
        <route edges="7:3 3:1 1:0"/>
    </vehicle>
    <vehicle id="186" depart="186.00">
        <route edges="6:5 5:1 1:0 0:2"/>
    </vehicle>
    <vehicle id="188" depart="188.00">
        <route edges="6:5 5:1 1:3 3:7"/>
    </vehicle>
    <vehicle id="190" depart="190.00">
        <route edges="6:5 5:1 1:3 3:7"/>
    </vehicle>
    <vehicle id="191" depart="191.00">
        <route edges="2:0 0:1 1:5 5:6"/>
    </vehicle>
    <vehicle id="193" depart="193.00">
        <route edges="1:0 0:2"/>
    </vehicle>
    <vehicle id="197" depart="197.00">
        <route edges="7:3 3:1"/>
    </vehicle>
    <vehicle id="199" depart="199.00">
        <route edges="7:3 3:1 1:0 0:2"/>
    </vehicle>
    <vehicle id="200" depart="200.00">
        <route edges="7:3 3:1"/>
    </vehicle>
    <vehicle id="202" depart="202.00">
        <route edges="7:3 3:1 1:5"/>
    </vehicle>
    <vehicle id="203" depart="203.00">
        <route edges="2:0 0:1 1:3"/>
    </vehicle>
    <vehicle id="204" depart="204.00">
        <route edges="1:3 3:7"/>
    </vehicle>
    <vehicle id="210" depart="210.00">
        <route edges="7:3 3:1 1:5"/>
    </vehicle>
    <vehicle id="211" depart="211.00">
        <route edges="2:0 0:1 1:3"/>
    </vehicle>
    <vehicle id="212" depart="212.00">
        <route edges="2:0 0:1 1:5"/>
    </vehicle>
    <vehicle id="214" depart="214.00">
        <route edges="7:3 3:1 1:5 5:6"/>
    </vehicle>
    <vehicle id="216" depart="216.00">
        <route edges="6:5 5:1 1:3"/>
    </vehicle>
    <vehicle id="218" depart="218.00">
        <route edges="3:1 1:0 0:2"/>
    </vehicle>
    <vehicle id="220" depart="220.00">
        <route edges="5:1 1:0"/>
    </vehicle>
    <vehicle id="221" depart="221.00">
        <route edges="2:0 0:1 1:5"/>
    </vehicle>
    <vehicle id="222" depart="222.00">
        <route edges="0:1"/>
    </vehicle>
    <vehicle id="224" depart="224.00">
        <route edges="2:0 0:1 1:3 3:7"/>
    </vehicle>
    <vehicle id="225" depart="225.00">
        <route edges="2:0 0:1 1:3"/>
    </vehicle>
    <vehicle id="229" depart="229.00">
        <route edges="6:5 5:1 1:3 3:7"/>
    </vehicle>
    <vehicle id="230" depart="230.00">
        <route edges="7:3 3:1 1:0"/>
    </vehicle>
    <vehicle id="231" depart="231.00">
        <route edges="2:0 0:1 1:3 3:7"/>
    </vehicle>
    <vehicle id="233" depart="233.00">
        <route edges="2:0 0:1 1:5"/>
    </vehicle>
    <vehicle id="235" depart="235.00">
        <route edges="3:1 1:5"/>
    </vehicle>
    <vehicle id="239" depart="239.00">
        <route edges="7:3 3:1 1:5 5:6"/>
    </vehicle>
    <vehicle id="240" depart="240.00">
        <route edges="7:3 3:1 1:0 0:2"/>
    </vehicle>
    <vehicle id="241" depart="241.00">
        <route edges="7:3 3:1"/>
    </vehicle>
    <vehicle id="242" depart="242.00">
        <route edges="3:1 1:0 0:2"/>
    </vehicle>
    <vehicle id="243" depart="243.00">
        <route edges="0:1 1:3 3:7"/>
    </vehicle>
    <vehicle id="244" depart="244.00">
        <route edges="7:3 3:1 1:5 5:6"/>
    </vehicle>
    <vehicle id="246" depart="246.00">
        <route edges="2:0 0:1 1:3 3:7"/>
    </vehicle>
    <vehicle id="253" depart="253.00">
        <route edges="2:0 0:1 1:5 5:6"/>
    </vehicle>
    <vehicle id="255" depart="255.00">
        <route edges="2:0 0:1"/>
    </vehicle>
    <vehicle id="256" depart="256.00">
        <route edges="2:0 0:1 1:3 3:7"/>
    </vehicle>
    <vehicle id="257" depart="257.00">
        <route edges="2:0 0:1 1:3"/>
    </vehicle>
    <vehicle id="258" depart="258.00">
        <route edges="1:3 3:7"/>
    </vehicle>
    <vehicle id="260" depart="260.00">
        <route edges="1:3 3:7"/>
    </vehicle>
    <vehicle id="261" depart="261.00">
        <route edges="1:0"/>
    </vehicle>
    <vehicle id="262" depart="262.00">
        <route edges="5:1 1:3 3:7"/>
    </vehicle>
    <vehicle id="263" depart="263.00">
        <route edges="6:5 5:1 1:0 0:2"/>
    </vehicle>
    <vehicle id="265" depart="265.00">
        <route edges="3:1 1:0"/>
    </vehicle>
    <vehicle id="266" depart="266.00">
        <route edges="7:3 3:1 1:5"/>
    </vehicle>
    <vehicle id="267" depart="267.00">
        <route edges="7:3 3:1 1:0 0:2"/>
    </vehicle>
    <vehicle id="268" depart="268.00">
        <route edges="3:1"/>
    </vehicle>
    <vehicle id="270" depart="270.00">
        <route edges="2:0 0:1 1:3"/>
    </vehicle>
    <vehicle id="271" depart="271.00">
        <route edges="1:3 3:7"/>
    </vehicle>
    <vehicle id="273" depart="273.00">
        <route edges="3:1 1:0 0:2"/>
    </vehicle>
    <vehicle id="275" depart="275.00">
        <route edges="7:3 3:1 1:0"/>
    </vehicle>
    <vehicle id="276" depart="276.00">
        <route edges="2:0 0:1 1:3"/>
    </vehicle>
    <vehicle id="277" depart="277.00">
        <route edges="3:1"/>
    </vehicle>
    <vehicle id="281" depart="281.00">
        <route edges="6:5 5:1 1:3 3:7"/>
    </vehicle>
    <vehicle id="282" depart="282.00">
        <route edges="0:1 1:3 3:7"/>
    </vehicle>
    <vehicle id="283" depart="283.00">
        <route edges="7:3 3:1 1:5 5:6"/>
    </vehicle>
    <vehicle id="284" depart="284.00">
        <route edges="2:0 0:1"/>
    </vehicle>
    <vehicle id="286" depart="286.00">
        <route edges="7:3 3:1 1:5"/>
    </vehicle>
    <vehicle id="288" depart="288.00">
        <route edges="2:0 0:1 1:3 3:7"/>
    </vehicle>
    <vehicle id="291" depart="291.00">
        <route edges="7:3 3:1 1:0 0:2"/>
    </vehicle>
    <vehicle id="293" depart="293.00">
        <route edges="7:3 3:1 1:5"/>
    </vehicle>
    <vehicle id="294" depart="294.00">
        <route edges="7:3 3:1 1:0 0:2"/>
    </vehicle>
    <vehicle id="295" depart="295.00">
        <route edges="3:1"/>
    </vehicle>
    <vehicle id="299" depart="299.00">
        <route edges="6:5 5:1 1:0 0:2"/>
    </vehicle>
    <vehicle id="300" depart="300.00">
        <route edges="3:1 1:0"/>
    </vehicle>
    <vehicle id="302" depart="302.00">
        <route edges="0:1"/>
    </vehicle>
    <vehicle id="303" depart="303.00">
        <route edges="3:1"/>
    </vehicle>
    <vehicle id="304" depart="304.00">
        <route edges="6:5 5:1 1:0 0:2"/>
    </vehicle>
    <vehicle id="308" depart="308.00">
        <route edges="5:1 1:3"/>
    </vehicle>
    <vehicle id="309" depart="309.00">
        <route edges="3:1 1:0 0:2"/>
    </vehicle>
    <vehicle id="313" depart="313.00">
        <route edges="7:3 3:1 1:5 5:6"/>
    </vehicle>
    <vehicle id="314" depart="314.00">
        <route edges="7:3 3:1 1:0 0:2"/>
    </vehicle>
    <vehicle id="317" depart="317.00">
        <route edges="2:0 0:1 1:3"/>
    </vehicle>
    <vehicle id="319" depart="319.00">
        <route edges="2:0 0:1 1:3"/>
    </vehicle>
    <vehicle id="321" depart="321.00">
        <route edges="2:0 0:1 1:3 3:7"/>
    </vehicle>
    <vehicle id="326" depart="326.00">
        <route edges="6:5 5:1 1:0"/>
    </vehicle>
    <vehicle id="328" depart="328.00">
        <route edges="7:3 3:1"/>
    </vehicle>
    <vehicle id="334" depart="334.00">
        <route edges="0:1 1:3 3:7"/>
    </vehicle>
    <vehicle id="336" depart="336.00">
        <route edges="1:3 3:7"/>
    </vehicle>
    <vehicle id="341" depart="341.00">
        <route edges="1:0"/>
    </vehicle>
    <vehicle id="345" depart="345.00">
        <route edges="3:1 1:5 5:6"/>
    </vehicle>
    <vehicle id="346" depart="346.00">
        <route edges="1:0"/>
    </vehicle>
    <vehicle id="347" depart="347.00">
        <route edges="6:5 5:1 1:0 0:2"/>
    </vehicle>
    <vehicle id="348" depart="348.00">
        <route edges="1:3 3:7"/>
    </vehicle>
    <vehicle id="349" depart="349.00">
        <route edges="1:0"/>
    </vehicle>
    <vehicle id="352" depart="352.00">
        <route edges="2:0 0:1"/>
    </vehicle>
    <vehicle id="353" depart="353.00">
        <route edges="7:3 3:1 1:0"/>
    </vehicle>
    <vehicle id="355" depart="355.00">
        <route edges="5:1 1:3 3:7"/>
    </vehicle>
    <vehicle id="357" depart="357.00">
        <route edges="3:1"/>
    </vehicle>
    <vehicle id="359" depart="359.00">
        <route edges="1:5 5:6"/>
    </vehicle>
    <vehicle id="361" depart="361.00">
        <route edges="2:0 0:1 1:3"/>
    </vehicle>
    <vehicle id="362" depart="362.00">
        <route edges="1:3 3:7"/>
    </vehicle>
    <vehicle id="364" depart="364.00">
        <route edges="5:1 1:3 3:7"/>
    </vehicle>
    <vehicle id="365" depart="365.00">
        <route edges="0:1 1:5 5:6"/>
    </vehicle>
    <vehicle id="367" depart="367.00">
        <route edges="1:3 3:7"/>
    </vehicle>
    <vehicle id="369" depart="369.00">
        <route edges="3:1 1:5"/>
    </vehicle>
    <vehicle id="373" depart="373.00">
        <route edges="3:1 1:0 0:2"/>
    </vehicle>
    <vehicle id="376" depart="376.00">
        <route edges="7:3 3:1 1:0"/>
    </vehicle>
    <vehicle id="377" depart="377.00">
        <route edges="3:1 1:0"/>
    </vehicle>
    <vehicle id="378" depart="378.00">
        <route edges="2:0 0:1 1:3 3:7"/>
    </vehicle>
    <vehicle id="380" depart="380.00">
        <route edges="6:5 5:1 1:0 0:2"/>
    </vehicle>
    <vehicle id="381" depart="381.00">
        <route edges="3:1 1:0 0:2"/>
    </vehicle>
    <vehicle id="383" depart="383.00">
        <route edges="1:0 0:2"/>
    </vehicle>
    <vehicle id="384" depart="384.00">
        <route edges="7:3 3:1 1:0 0:2"/>
    </vehicle>
    <vehicle id="385" depart="385.00">
        <route edges="1:5"/>
    </vehicle>
    <vehicle id="386" depart="386.00">
        <route edges="7:3 3:1"/>
    </vehicle>
    <vehicle id="387" depart="387.00">
        <route edges="5:1 1:3 3:7"/>
    </vehicle>
    <vehicle id="388" depart="388.00">
        <route edges="7:3 3:1 1:0 0:2"/>
    </vehicle>
    <vehicle id="391" depart="391.00">
        <route edges="7:3 3:1 1:5 5:6"/>
    </vehicle>
    <vehicle id="393" depart="393.00">
        <route edges="0:1"/>
    </vehicle>
    <vehicle id="397" depart="397.00">
        <route edges="1:3 3:7"/>
    </vehicle>
    <vehicle id="399" depart="399.00">
        <route edges="2:0 0:1 1:3"/>
    </vehicle>
    <vehicle id="401" depart="401.00">
        <route edges="6:5 5:1 1:3 3:7"/>
    </vehicle>
    <vehicle id="404" depart="404.00">
        <route edges="6:5 5:1 1:0 0:2"/>
    </vehicle>
    <vehicle id="405" depart="405.00">
        <route edges="7:3 3:1 1:5 5:6"/>
    </vehicle>
    <vehicle id="408" depart="408.00">
        <route edges="0:1 1:3"/>
    </vehicle>
    <vehicle id="409" depart="409.00">
        <route edges="6:5 5:1 1:0 0:2"/>
    </vehicle>
    <vehicle id="413" depart="413.00">
        <route edges="1:0"/>
    </vehicle>
    <vehicle id="414" depart="414.00">
        <route edges="2:0 0:1"/>
    </vehicle>
    <vehicle id="415" depart="415.00">
        <route edges="1:0 0:2"/>
    </vehicle>
    <vehicle id="416" depart="416.00">
        <route edges="2:0 0:1 1:3"/>
    </vehicle>
    <vehicle id="417" depart="417.00">
        <route edges="2:0 0:1 1:5 5:6"/>
    </vehicle>
    <vehicle id="418" depart="418.00">
        <route edges="6:5 5:1 1:0"/>
    </vehicle>
    <vehicle id="421" depart="421.00">
        <route edges="2:0 0:1 1:3 3:7"/>
    </vehicle>
    <vehicle id="422" depart="422.00">
        <route edges="5:1 1:0 0:2"/>
    </vehicle>
    <vehicle id="424" depart="424.00">
        <route edges="3:1 1:0 0:2"/>
    </vehicle>
    <vehicle id="426" depart="426.00">
        <route edges="2:0 0:1 1:3"/>
    </vehicle>
    <vehicle id="427" depart="427.00">
        <route edges="6:5 5:1 1:0 0:2"/>
    </vehicle>
    <vehicle id="428" depart="428.00">
        <route edges="7:3 3:1 1:0 0:2"/>
    </vehicle>
    <vehicle id="429" depart="429.00">
        <route edges="6:5 5:1"/>
    </vehicle>
    <vehicle id="430" depart="430.00">
        <route edges="2:0 0:1 1:3 3:7"/>
    </vehicle>
    <vehicle id="432" depart="432.00">
        <route edges="0:1 1:3 3:7"/>
    </vehicle>
    <vehicle id="438" depart="438.00">
        <route edges="5:1 1:3"/>
    </vehicle>
    <vehicle id="439" depart="439.00">
        <route edges="7:3 3:1 1:5 5:6"/>
    </vehicle>
    <vehicle id="440" depart="440.00">
        <route edges="0:1 1:3 3:7"/>
    </vehicle>
    <vehicle id="441" depart="441.00">
        <route edges="5:1 1:0"/>
    </vehicle>
    <vehicle id="442" depart="442.00">
        <route edges="2:0 0:1 1:5"/>
    </vehicle>
    <vehicle id="443" depart="443.00">
        <route edges="7:3 3:1 1:0 0:2"/>
    </vehicle>
    <vehicle id="444" depart="444.00">
        <route edges="6:5 5:1 1:0"/>
    </vehicle>
    <vehicle id="446" depart="446.00">
        <route edges="2:0 0:1 1:3 3:7"/>
    </vehicle>
    <vehicle id="448" depart="448.00">
        <route edges="7:3 3:1 1:5 5:6"/>
    </vehicle>
    <vehicle id="449" depart="449.00">
        <route edges="3:1"/>
    </vehicle>
    <vehicle id="450" depart="450.00">
        <route edges="2:0 0:1 1:3 3:7"/>
    </vehicle>
    <vehicle id="451" depart="451.00">
        <route edges="1:3 3:7"/>
    </vehicle>
    <vehicle id="455" depart="455.00">
        <route edges="2:0 0:1 1:3 3:7"/>
    </vehicle>
    <vehicle id="458" depart="458.00">
        <route edges="7:3 3:1 1:0 0:2"/>
    </vehicle>
    <vehicle id="463" depart="463.00">
        <route edges="5:1 1:3"/>
    </vehicle>
    <vehicle id="465" depart="465.00">
        <route edges="1:0 0:2"/>
    </vehicle>
    <vehicle id="468" depart="468.00">
        <route edges="0:1 1:5 5:6"/>
    </vehicle>
    <vehicle id="472" depart="472.00">
        <route edges="2:0 0:1 1:3 3:7"/>
    </vehicle>
    <vehicle id="473" depart="473.00">
        <route edges="2:0 0:1"/>
    </vehicle>
    <vehicle id="474" depart="474.00">
        <route edges="6:5 5:1 1:3 3:7"/>
    </vehicle>
    <vehicle id="475" depart="475.00">
        <route edges="7:3 3:1 1:0 0:2"/>
    </vehicle>
    <vehicle id="476" depart="476.00">
        <route edges="3:1 1:0"/>
    </vehicle>
    <vehicle id="477" depart="477.00">
        <route edges="5:1 1:0"/>
    </vehicle>
    <vehicle id="480" depart="480.00">
        <route edges="7:3 3:1"/>
    </vehicle>
    <vehicle id="481" depart="481.00">
        <route edges="7:3 3:1 1:0 0:2"/>
    </vehicle>
    <vehicle id="482" depart="482.00">
        <route edges="0:1"/>
    </vehicle>
    <vehicle id="483" depart="483.00">
        <route edges="0:1 1:3 3:7"/>
    </vehicle>
    <vehicle id="484" depart="484.00">
        <route edges="0:1 1:3"/>
    </vehicle>
    <vehicle id="485" depart="485.00">
        <route edges="7:3 3:1 1:0 0:2"/>
    </vehicle>
    <vehicle id="487" depart="487.00">
        <route edges="2:0 0:1 1:3 3:7"/>
    </vehicle>
    <vehicle id="490" depart="490.00">
        <route edges="2:0 0:1 1:3 3:7"/>
    </vehicle>
    <vehicle id="491" depart="491.00">
        <route edges="3:1 1:0 0:2"/>
    </vehicle>
    <vehicle id="492" depart="492.00">
        <route edges="1:0 0:2"/>
    </vehicle>
    <vehicle id="494" depart="494.00">
        <route edges="2:0 0:1 1:3 3:7"/>
    </vehicle>
    <vehicle id="496" depart="496.00">
        <route edges="2:0 0:1 1:3 3:7"/>
    </vehicle>
    <vehicle id="498" depart="498.00">
        <route edges="2:0 0:1 1:3 3:7"/>
    </vehicle>
    <vehicle id="499" depart="499.00">
        <route edges="6:5 5:1 1:0"/>
    </vehicle>
    <vehicle id="500" depart="500.00">
        <route edges="2:0 0:1 1:5 5:6"/>
    </vehicle>
    <vehicle id="502" depart="502.00">
        <route edges="7:3 3:1 1:0 0:2"/>
    </vehicle>
    <vehicle id="504" depart="504.00">
        <route edges="2:0 0:1 1:3 3:7"/>
    </vehicle>
    <vehicle id="508" depart="508.00">
        <route edges="2:0 0:1 1:3 3:7"/>
    </vehicle>
    <vehicle id="509" depart="509.00">
        <route edges="1:0"/>
    </vehicle>
    <vehicle id="511" depart="511.00">
        <route edges="5:1 1:3 3:7"/>
    </vehicle>
    <vehicle id="513" depart="513.00">
        <route edges="1:3 3:7"/>
    </vehicle>
    <vehicle id="515" depart="515.00">
        <route edges="7:3 3:1"/>
    </vehicle>
    <vehicle id="518" depart="518.00">
        <route edges="7:3 3:1 1:0 0:2"/>
    </vehicle>
    <vehicle id="521" depart="521.00">
        <route edges="0:1 1:5 5:6"/>
    </vehicle>
    <vehicle id="523" depart="523.00">
        <route edges="0:1 1:5"/>
    </vehicle>
    <vehicle id="526" depart="526.00">
        <route edges="7:3 3:1 1:0"/>
    </vehicle>
    <vehicle id="527" depart="527.00">
        <route edges="7:3 3:1 1:0 0:2"/>
    </vehicle>
    <vehicle id="531" depart="531.00">
        <route edges="6:5 5:1 1:3"/>
    </vehicle>
    <vehicle id="533" depart="533.00">
        <route edges="1:0 0:2"/>
    </vehicle>
    <vehicle id="534" depart="534.00">
        <route edges="7:3 3:1"/>
    </vehicle>
    <vehicle id="535" depart="535.00">
        <route edges="2:0 0:1 1:3"/>
    </vehicle>
    <vehicle id="536" depart="536.00">
        <route edges="0:1"/>
    </vehicle>
    <vehicle id="537" depart="537.00">
        <route edges="1:3 3:7"/>
    </vehicle>
    <vehicle id="541" depart="541.00">
        <route edges="3:1 1:0 0:2"/>
    </vehicle>
    <vehicle id="542" depart="542.00">
        <route edges="6:5 5:1 1:0 0:2"/>
    </vehicle>
    <vehicle id="543" depart="543.00">
        <route edges="7:3 3:1 1:5 5:6"/>
    </vehicle>
    <vehicle id="544" depart="544.00">
        <route edges="3:1"/>
    </vehicle>
    <vehicle id="545" depart="545.00">
        <route edges="6:5 5:1 1:0"/>
    </vehicle>
    <vehicle id="547" depart="547.00">
        <route edges="7:3 3:1 1:5"/>
    </vehicle>
    <vehicle id="549" depart="549.00">
        <route edges="3:1 1:0"/>
    </vehicle>
    <vehicle id="551" depart="551.00">
        <route edges="2:0 0:1 1:5 5:6"/>
    </vehicle>
    <vehicle id="554" depart="554.00">
        <route edges="2:0 0:1 1:3"/>
    </vehicle>
    <vehicle id="555" depart="555.00">
        <route edges="1:0"/>
    </vehicle>
    <vehicle id="560" depart="560.00">
        <route edges="3:1 1:0 0:2"/>
    </vehicle>
    <vehicle id="562" depart="562.00">
        <route edges="2:0 0:1 1:3 3:7"/>
    </vehicle>
    <vehicle id="568" depart="568.00">
        <route edges="5:1 1:3"/>
    </vehicle>
    <vehicle id="573" depart="573.00">
        <route edges="7:3 3:1 1:0 0:2"/>
    </vehicle>
    <vehicle id="574" depart="574.00">
        <route edges="3:1 1:0"/>
    </vehicle>
    <vehicle id="577" depart="577.00">
        <route edges="2:0 0:1 1:3 3:7"/>
    </vehicle>
    <vehicle id="578" depart="578.00">
        <route edges="0:1 1:3 3:7"/>
    </vehicle>
    <vehicle id="581" depart="581.00">
        <route edges="2:0 0:1 1:3 3:7"/>
    </vehicle>
    <vehicle id="582" depart="582.00">
        <route edges="7:3 3:1 1:5"/>
    </vehicle>
    <vehicle id="583" depart="583.00">
        <route edges="2:0 0:1"/>
    </vehicle>
    <vehicle id="585" depart="585.00">
        <route edges="3:1"/>
    </vehicle>
    <vehicle id="587" depart="587.00">
        <route edges="2:0 0:1 1:3 3:7"/>
    </vehicle>
    <vehicle id="588" depart="588.00">
        <route edges="2:0 0:1 1:3"/>
    </vehicle>
    <vehicle id="590" depart="590.00">
        <route edges="2:0 0:1 1:5 5:6"/>
    </vehicle>
    <vehicle id="592" depart="592.00">
        <route edges="6:5 5:1 1:0 0:2"/>
    </vehicle>
    <vehicle id="593" depart="593.00">
        <route edges="3:1 1:5"/>
    </vehicle>
    <vehicle id="599" depart="599.00">
        <route edges="5:1 1:3 3:7"/>
    </vehicle>
    <vehicle id="602" depart="602.00">
        <route edges="7:3 3:1 1:0"/>
    </vehicle>
    <vehicle id="604" depart="604.00">
        <route edges="2:0 0:1 1:3 3:7"/>
    </vehicle>
    <vehicle id="605" depart="605.00">
        <route edges="2:0 0:1 1:3"/>
    </vehicle>
    <vehicle id="607" depart="607.00">
        <route edges="3:1 1:5 5:6"/>
    </vehicle>
    <vehicle id="608" depart="608.00">
        <route edges="6:5 5:1 1:3"/>
    </vehicle>
    <vehicle id="610" depart="610.00">
        <route edges="2:0 0:1 1:3 3:7"/>
    </vehicle>
    <vehicle id="612" depart="612.00">
        <route edges="7:3 3:1 1:0 0:2"/>
    </vehicle>
    <vehicle id="613" depart="613.00">
        <route edges="1:0"/>
    </vehicle>
    <vehicle id="614" depart="614.00">
        <route edges="2:0 0:1"/>
    </vehicle>
    <vehicle id="616" depart="616.00">
        <route edges="2:0 0:1 1:3 3:7"/>
    </vehicle>
    <vehicle id="622" depart="622.00">
        <route edges="1:0 0:2"/>
    </vehicle>
    <vehicle id="623" depart="623.00">
        <route edges="0:1 1:3 3:7"/>
    </vehicle>
    <vehicle id="624" depart="624.00">
        <route edges="0:1 1:5 5:6"/>
    </vehicle>
    <vehicle id="633" depart="633.00">
        <route edges="7:3 3:1 1:0 0:2"/>
    </vehicle>
    <vehicle id="634" depart="634.00">
        <route edges="7:3 3:1 1:5"/>
    </vehicle>
    <vehicle id="635" depart="635.00">
        <route edges="6:5 5:1 1:3"/>
    </vehicle>
    <vehicle id="637" depart="637.00">
        <route edges="2:0 0:1 1:3 3:7"/>
    </vehicle>
    <vehicle id="639" depart="639.00">
        <route edges="1:0 0:2"/>
    </vehicle>
    <vehicle id="641" depart="641.00">
        <route edges="1:0 0:2"/>
    </vehicle>
    <vehicle id="642" depart="642.00">
        <route edges="2:0 0:1 1:3"/>
    </vehicle>
    <vehicle id="643" depart="643.00">
        <route edges="0:1 1:3"/>
    </vehicle>
    <vehicle id="644" depart="644.00">
        <route edges="2:0 0:1 1:3 3:7"/>
    </vehicle>
    <vehicle id="646" depart="646.00">
        <route edges="2:0 0:1 1:3"/>
    </vehicle>
    <vehicle id="647" depart="647.00">
        <route edges="3:1"/>
    </vehicle>
    <vehicle id="655" depart="655.00">
        <route edges="6:5 5:1 1:0 0:2"/>
    </vehicle>