<?xml version="1.0" encoding="UTF-8"?>

<!-- generated on Thu Feb 13 12:39:54 2014 by SUMO duarouter Version 0.18.0
<?xml version="1.0" encoding="UTF-8"?>

<configuration xmlns:xsi="http://www.w3.org/2001/XMLSchema-instance" xsi:noNamespaceSchemaLocation="http://sumo.sf.net/xsd/duarouterConfiguration.xsd">

    <input>
        <net-file value="simpleT.net.xml"/>
        <trip-files value="experimentos/simpleT.p1.0.5.trips.xml"/>
    </input>

    <output>
        <output-file value="experimentos/simpleT.p1.0.5.rou.xml"/>
    </output>

    <processing>
        <ignore-errors value="true"/>
    </processing>

    <random_number>
        <random value="true"/>
    </random_number>

</configuration>
-->

<routes xmlns:xsi="http://www.w3.org/2001/XMLSchema-instance" xsi:noNamespaceSchemaLocation="http://sumo.sf.net/xsd/routes_file.xsd">
    <vehicle id="0" depart="0.00">
        <route edges="2:0 0:1"/>
    </vehicle>
    <vehicle id="1" depart="1.00">
        <route edges="3:1 1:0"/>
    </vehicle>
    <vehicle id="2" depart="2.00">
        <route edges="7:3 3:1 1:0 0:2"/>
    </vehicle>
    <vehicle id="3" depart="3.00">
        <route edges="7:3 3:1 1:0 0:2"/>
    </vehicle>
    <vehicle id="5" depart="5.00">
        <route edges="1:3 3:7"/>
    </vehicle>
    <vehicle id="6" depart="6.00">
        <route edges="6:5 5:1 1:0 0:2"/>
    </vehicle>
    <vehicle id="7" depart="7.00">
        <route edges="5:1 1:0"/>
    </vehicle>
    <vehicle id="8" depart="8.00">
        <route edges="2:0 0:1"/>
    </vehicle>
    <vehicle id="9" depart="9.00">
        <route edges="7:3 3:1 1:5 5:6"/>
    </vehicle>
    <vehicle id="14" depart="14.00">
        <route edges="6:5 5:1 1:3"/>
    </vehicle>
    <vehicle id="15" depart="15.00">
        <route edges="7:3 3:1 1:0"/>
    </vehicle>
    <vehicle id="20" depart="20.00">
        <route edges="3:1"/>
    </vehicle>
    <vehicle id="22" depart="22.00">
        <route edges="7:3 3:1 1:5"/>
    </vehicle>
    <vehicle id="23" depart="23.00">
        <route edges="7:3 3:1"/>
    </vehicle>
    <vehicle id="25" depart="25.00">
        <route edges="6:5 5:1 1:3"/>
    </vehicle>
    <vehicle id="29" depart="29.00">
        <route edges="7:3 3:1 1:5 5:6"/>
    </vehicle>
    <vehicle id="30" depart="30.00">
        <route edges="1:0"/>
    </vehicle>
    <vehicle id="32" depart="32.00">
        <route edges="1:3"/>
    </vehicle>
    <vehicle id="35" depart="35.00">
        <route edges="5:1 1:0"/>
    </vehicle>
    <vehicle id="36" depart="36.00">
        <route edges="0:1 1:5 5:6"/>
    </vehicle>
    <vehicle id="37" depart="37.00">
        <route edges="2:0 0:1 1:3 3:7"/>
    </vehicle>
    <vehicle id="39" depart="39.00">
        <route edges="7:3 3:1 1:0 0:2"/>
    </vehicle>
    <vehicle id="40" depart="40.00">
        <route edges="7:3 3:1 1:0 0:2"/>
    </vehicle>
    <vehicle id="42" depart="42.00">
        <route edges="1:3 3:7"/>
    </vehicle>
    <vehicle id="43" depart="43.00">
        <route edges="6:5 5:1 1:3 3:7"/>
    </vehicle>
    <vehicle id="44" depart="44.00">
        <route edges="1:0 0:2"/>
    </vehicle>
    <vehicle id="50" depart="50.00">
        <route edges="7:3 3:1"/>
    </vehicle>
    <vehicle id="51" depart="51.00">
        <route edges="3:1 1:0 0:2"/>
    </vehicle>
    <vehicle id="52" depart="52.00">
        <route edges="6:5 5:1 1:3 3:7"/>
    </vehicle>
    <vehicle id="53" depart="53.00">
        <route edges="2:0 0:1 1:3"/>
    </vehicle>
    <vehicle id="55" depart="55.00">
        <route edges="3:1 1:0"/>
    </vehicle>
    <vehicle id="56" depart="56.00">
        <route edges="6:5 5:1 1:3 3:7"/>
    </vehicle>
    <vehicle id="58" depart="58.00">
        <route edges="2:0 0:1"/>
    </vehicle>
    <vehicle id="59" depart="59.00">
        <route edges="7:3 3:1 1:5 5:6"/>
    </vehicle>
    <vehicle id="62" depart="62.00">
        <route edges="2:0 0:1 1:3 3:7"/>
    </vehicle>
    <vehicle id="64" depart="64.00">
        <route edges="7:3 3:1 1:0"/>
    </vehicle>
    <vehicle id="65" depart="65.00">
        <route edges="5:1"/>
    </vehicle>
    <vehicle id="68" depart="68.00">
        <route edges="0:1 1:3 3:7"/>
    </vehicle>
    <vehicle id="69" depart="69.00">
        <route edges="2:0 0:1 1:3 3:7"/>
    </vehicle>
    <vehicle id="71" depart="71.00">
        <route edges="3:1"/>
    </vehicle>
    <vehicle id="72" depart="72.00">
        <route edges="0:1 1:5 5:6"/>
    </vehicle>
    <vehicle id="73" depart="73.00">
        <route edges="7:3 3:1"/>
    </vehicle>
    <vehicle id="74" depart="74.00">
        <route edges="1:3 3:7"/>
    </vehicle>
    <vehicle id="79" depart="79.00">
        <route edges="5:1 1:3 3:7"/>
    </vehicle>
    <vehicle id="81" depart="81.00">
        <route edges="6:5 5:1 1:0 0:2"/>
    </vehicle>
    <vehicle id="84" depart="84.00">
        <route edges="6:5 5:1 1:3 3:7"/>
    </vehicle>
    <vehicle id="87" depart="87.00">
        <route edges="0:1 1:3 3:7"/>
    </vehicle>
    <vehicle id="89" depart="89.00">
        <route edges="2:0 0:1 1:3 3:7"/>
    </vehicle>
    <vehicle id="90" depart="90.00">
        <route edges="2:0 0:1 1:3 3:7"/>
    </vehicle>
    <vehicle id="94" depart="94.00">
        <route edges="2:0 0:1 1:3 3:7"/>
    </vehicle>
    <vehicle id="95" depart="95.00">
        <route edges="7:3 3:1 1:0 0:2"/>
    </vehicle>
    <vehicle id="97" depart="97.00">
        <route edges="6:5 5:1 1:3 3:7"/>
    </vehicle>
    <vehicle id="98" depart="98.00">
        <route edges="7:3 3:1"/>
    </vehicle>
    <vehicle id="99" depart="99.00">
        <route edges="6:5 5:1 1:0"/>
    </vehicle>
    <vehicle id="101" depart="101.00">
        <route edges="7:3 3:1 1:5 5:6"/>
    </vehicle>
    <vehicle id="102" depart="102.00">
        <route edges="2:0 0:1 1:3 3:7"/>
    </vehicle>
    <vehicle id="103" depart="103.00">
        <route edges="0:1 1:5 5:6"/>
    </vehicle>
    <vehicle id="105" depart="105.00">
        <route edges="3:1 1:0"/>
    </vehicle>
    <vehicle id="107" depart="107.00">
        <route edges="2:0 0:1 1:3 3:7"/>
    </vehicle>
    <vehicle id="110" depart="110.00">
        <route edges="3:1 1:0 0:2"/>
    </vehicle>
    <vehicle id="112" depart="112.00">
        <route edges="2:0 0:1 1:3 3:7"/>
    </vehicle>
    <vehicle id="113" depart="113.00">
        <route edges="3:1 1:0 0:2"/>
    </vehicle>
    <vehicle id="116" depart="116.00">
        <route edges="2:0 0:1 1:5"/>
    </vehicle>
    <vehicle id="122" depart="122.00">
        <route edges="1:3 3:7"/>
    </vehicle>
    <vehicle id="123" depart="123.00">
        <route edges="0:1 1:3 3:7"/>
    </vehicle>
    <vehicle id="124" depart="124.00">
        <route edges="2:0 0:1 1:3 3:7"/>
    </vehicle>
    <vehicle id="126" depart="126.00">
        <route edges="7:3 3:1 1:5 5:6"/>
    </vehicle>
    <vehicle id="127" depart="127.00">
        <route edges="0:1 1:3 3:7"/>
    </vehicle>
    <vehicle id="129" depart="129.00">
        <route edges="0:1 1:3 3:7"/>
    </vehicle>
    <vehicle id="132" depart="132.00">
        <route edges="1:5 5:6"/>
    </vehicle>
    <vehicle id="134" depart="134.00">
        <route edges="1:0 0:2"/>
    </vehicle>
    <vehicle id="135" depart="135.00">
        <route edges="5:1 1:3"/>
    </vehicle>
    <vehicle id="136" depart="136.00">
        <route edges="2:0 0:1 1:5 5:6"/>
    </vehicle>
    <vehicle id="137" depart="137.00">
        <route edges="1:0 0:2"/>
    </vehicle>
    <vehicle id="140" depart="140.00">
        <route edges="7:3 3:1 1:5"/>
    </vehicle>
    <vehicle id="142" depart="142.00">
        <route edges="1:5"/>
    </vehicle>
    <vehicle id="143" depart="143.00">
        <route edges="7:3 3:1 1:0"/>
    </vehicle>
    <vehicle id="144" depart="144.00">
        <route edges="7:3 3:1 1:5"/>
    </vehicle>
    <vehicle id="148" depart="148.00">
        <route edges="7:3 3:1 1:5 5:6"/>
    </vehicle>
    <vehicle id="149" depart="149.00">
        <route edges="1:3"/>
    </vehicle>
    <vehicle id="150" depart="150.00">
        <route edges="2:0 0:1 1:3 3:7"/>
    </vehicle>
    <vehicle id="152" depart="152.00">
        <route edges="2:0 0:1 1:3 3:7"/>
    </vehicle>
    <vehicle id="153" depart="153.00">
        <route edges="3:1 1:0"/>
    </vehicle>
    <vehicle id="154" depart="154.00">
        <route edges="2:0 0:1"/>
    </vehicle>
    <vehicle id="158" depart="158.00">
        <route edges="6:5 5:1"/>
    </vehicle>
    <vehicle id="162" depart="162.00">
        <route edges="7:3 3:1 1:0"/>
    </vehicle>
    <vehicle id="166" depart="166.00">
        <route edges="0:1"/>
    </vehicle>
    <vehicle id="167" depart="167.00">
        <route edges="2:0 0:1 1:3 3:7"/>
    </vehicle>
    <vehicle id="168" depart="168.00">
        <route edges="3:1 1:0 0:2"/>
    </vehicle>
    <vehicle id="170" depart="170.00">
        <route edges="6:5 5:1 1:3"/>
    </vehicle>
    <vehicle id="173" depart="173.00">
        <route edges="7:3 3:1 1:0"/>
    </vehicle>
    <vehicle id="174" depart="174.00">
        <route edges="3:1 1:5 5:6"/>
    </vehicle>
    <vehicle id="175" depart="175.00">
        <route edges="3:1"/>
    </vehicle>
    <vehicle id="178" depart="178.00">
        <route edges="6:5 5:1 1:3 3:7"/>
    </vehicle>
    <vehicle id="179" depart="179.00">
        <route edges="2:0 0:1 1:3 3:7"/>
    </vehicle>
    <vehicle id="180" depart="180.00">
        <route edges="7:3 3:1 1:0"/>
    </vehicle>
    <vehicle id="183" depart="183.00">
        <route edges="1:0 0:2"/>
    </vehicle>
    <vehicle id="184" depart="184.00">
        <route edges="7:3 3:1"/>
    </vehicle>
    <vehicle id="186" depart="186.00">
        <route edges="1:3 3:7"/>
    </vehicle>
    <vehicle id="187" depart="187.00">
        <route edges="6:5 5:1 1:3 3:7"/>
    </vehicle>
    <vehicle id="189" depart="189.00">
        <route edges="3:1 1:0 0:2"/>
    </vehicle>
    <vehicle id="190" depart="190.00">
        <route edges="6:5 5:1 1:3 3:7"/>
    </vehicle>
    <vehicle id="193" depart="193.00">
        <route edges="7:3 3:1 1:0 0:2"/>
    </vehicle>
    <vehicle id="194" depart="194.00">
        <route edges="3:1"/>
    </vehicle>
    <vehicle id="202" depart="202.00">
        <route edges="7:3 3:1 1:5"/>
    </vehicle>
    <vehicle id="204" depart="204.00">
        <route edges="2:0 0:1"/>
    </vehicle>
    <vehicle id="205" depart="205.00">
        <route edges="2:0 0:1 1:3 3:7"/>
    </vehicle>
    <vehicle id="209" depart="209.00">
        <route edges="6:5 5:1 1:3 3:7"/>
    </vehicle>
    <vehicle id="210" depart="210.00">
        <route edges="3:1 1:0"/>
    </vehicle>
    <vehicle id="211" depart="211.00">
        <route edges="3:1 1:0 0:2"/>
    </vehicle>
    <vehicle id="213" depart="213.00">
        <route edges="6:5 5:1 1:0 0:2"/>
    </vehicle>
    <vehicle id="214" depart="214.00">
        <route edges="7:3 3:1 1:0 0:2"/>
    </vehicle>
    <vehicle id="215" depart="215.00">
        <route edges="1:3 3:7"/>
    </vehicle>
    <vehicle id="218" depart="218.00">
        <route edges="7:3 3:1 1:0 0:2"/>
    </vehicle>
    <vehicle id="219" depart="219.00">
        <route edges="2:0 0:1"/>
    </vehicle>
    <vehicle id="220" depart="220.00">
        <route edges="0:1 1:3 3:7"/>
    </vehicle>
    <vehicle id="221" depart="221.00">
        <route edges="2:0 0:1 1:3 3:7"/>
    </vehicle>
    <vehicle id="222" depart="222.00">
        <route edges="7:3 3:1 1:5"/>
    </vehicle>
    <vehicle id="225" depart="225.00">
        <route edges="2:0 0:1 1:3 3:7"/>
    </vehicle>
    <vehicle id="226" depart="226.00">
        <route edges="2:0 0:1"/>
    </vehicle>
    <vehicle id="227" depart="227.00">
        <route edges="2:0 0:1 1:3"/>
    </vehicle>
    <vehicle id="229" depart="229.00">
        <route edges="2:0 0:1 1:3"/>
    </vehicle>
    <vehicle id="230" depart="230.00">
        <route edges="7:3 3:1 1:0 0:2"/>
    </vehicle>
    <vehicle id="231" depart="231.00">
        <route edges="7:3 3:1 1:0"/>
    </vehicle>
    <vehicle id="233" depart="233.00">
        <route edges="2:0 0:1 1:3 3:7"/>
    </vehicle>
    <vehicle id="235" depart="235.00">
        <route edges="1:3 3:7"/>
    </vehicle>
    <vehicle id="236" depart="236.00">
        <route edges="7:3 3:1"/>
    </vehicle>
    <vehicle id="239" depart="239.00">
        <route edges="1:0"/>
    </vehicle>
    <vehicle id="242" depart="242.00">
        <route edges="2:0 0:1 1:3"/>
    </vehicle>
    <vehicle id="244" depart="244.00">
        <route edges="5:1 1:0"/>
    </vehicle>
    <vehicle id="248" depart="248.00">
        <route edges="1:0 0:2"/>
    </vehicle>
    <vehicle id="250" depart="250.00">
        <route edges="6:5 5:1 1:3 3:7"/>
    </vehicle>
    <vehicle id="251" depart="251.00">
        <route edges="6:5 5:1 1:3 3:7"/>
    </vehicle>
    <vehicle id="253" depart="253.00">
        <route edges="0:1 1:3 3:7"/>
    </vehicle>
    <vehicle id="256" depart="256.00">
        <route edges="6:5 5:1 1:3 3:7"/>
    </vehicle>
    <vehicle id="257" depart="257.00">
        <route edges="1:0 0:2"/>
    </vehicle>
    <vehicle id="259" depart="259.00">
        <route edges="7:3 3:1 1:0 0:2"/>
    </vehicle>
    <vehicle id="260" depart="260.00">
        <route edges="1:0 0:2"/>
    </vehicle>
    <vehicle id="262" depart="262.00">
        <route edges="2:0 0:1"/>
    </vehicle>
    <vehicle id="263" depart="263.00">
        <route edges="3:1 1:0 0:2"/>
    </vehicle>
    <vehicle id="264" depart="264.00">
        <route edges="6:5 5:1"/>
    </vehicle>
    <vehicle id="267" depart="267.00">
        <route edges="1:0"/>
    </vehicle>
    <vehicle id="270" depart="270.00">
        <route edges="3:1 1:0 0:2"/>
    </vehicle>
    <vehicle id="271" depart="271.00">
        <route edges="6:5 5:1 1:0"/>
    </vehicle>
    <vehicle id="274" depart="274.00">
        <route edges="5:1 1:0 0:2"/>
    </vehicle>
    <vehicle id="275" depart="275.00">
        <route edges="0:1 1:3 3:7"/>
    </vehicle>
    <vehicle id="276" depart="276.00">
        <route edges="2:0 0:1 1:3 3:7"/>
    </vehicle>
    <vehicle id="277" depart="277.00">
        <route edges="1:0 0:2"/>
    </vehicle>
    <vehicle id="278" depart="278.00">
        <route edges="2:0 0:1 1:3 3:7"/>
    </vehicle>
    <vehicle id="281" depart="281.00">
        <route edges="0:1 1:5 5:6"/>
    </vehicle>
    <vehicle id="282" depart="282.00">
        <route edges="2:0 0:1 1:3 3:7"/>
    </vehicle>
    <vehicle id="283" depart="283.00">
        <route edges="7:3 3:1"/>
    </vehicle>
    <vehicle id="286" depart="286.00">
        <route edges="6:5 5:1 1:0 0:2"/>
    </vehicle>
    <vehicle id="290" depart="290.00">
        <route edges="5:1 1:3 3:7"/>
    </vehicle>
    <vehicle id="291" depart="291.00">
        <route edges="3:1 1:0 0:2"/>
    </vehicle>
    <vehicle id="299" depart="299.00">
        <route edges="7:3 3:1"/>
    </vehicle>
    <vehicle id="304" depart="304.00">
        <route edges="7:3 3:1 1:0"/>
    </vehicle>
    <vehicle id="305" depart="305.00">
        <route edges="7:3 3:1 1:5"/>
    </vehicle>
    <vehicle id="308" depart="308.00">
        <route edges="1:0 0:2"/>
    </vehicle>
    <vehicle id="310" depart="310.00">
        <route edges="6:5 5:1 1:3"/>
    </vehicle>
    <vehicle id="312" depart="312.00">
        <route edges="1:3 3:7"/>
    </vehicle>
    <vehicle id="313" depart="313.00">
        <route edges="6:5 5:1"/>
    </vehicle>
    <vehicle id="314" depart="314.00">
        <route edges="5:1 1:3 3:7"/>
    </vehicle>
    <vehicle id="318" depart="318.00">
        <route edges="7:3 3:1 1:0 0:2"/>
    </vehicle>
    <vehicle id="324" depart="324.00">
        <route edges="5:1 1:3 3:7"/>
    </vehicle>
    <vehicle id="326" depart="326.00">
        <route edges="7:3 3:1"/>
    </vehicle>
    <vehicle id="329" depart="329.00">
        <route edges="5:1 1:0"/>
    </vehicle>
    <vehicle id="330" depart="330.00">
        <route edges="7:3 3:1 1:0"/>
    </vehicle>
    <vehicle id="331" depart="331.00">
        <route edges="7:3 3:1 1:5"/>
    </vehicle>
    <vehicle id="332" depart="332.00">
        <route edges="7:3 3:1"/>
    </vehicle>
    <vehicle id="333" depart="333.00">
        <route edges="7:3 3:1 1:0 0:2"/>
    </vehicle>
    <vehicle id="337" depart="337.00">
        <route edges="3:1 1:5"/>
    </vehicle>
    <vehicle id="338" depart="338.00">
        <route edges="6:5 5:1 1:3 3:7"/>
    </vehicle>
    <vehicle id="340" depart="340.00">
        <route edges="1:3 3:7"/>
    </vehicle>
    <vehicle id="344" depart="344.00">
        <route edges="0:1"/>
    </vehicle>
    <vehicle id="345" depart="345.00">
        <route edges="2:0 0:1 1:3 3:7"/>
    </vehicle>
    <vehicle id="346" depart="346.00">
        <route edges="0:1"/>
    </vehicle>
    <vehicle id="349" depart="349.00">
        <route edges="0:1 1:3 3:7"/>
    </vehicle>
    <vehicle id="352" depart="352.00">
        <route edges="1:0 0:2"/>
    </vehicle>
    <vehicle id="353" depart="353.00">
        <route edges="1:0 0:2"/>
    </vehicle>
    <vehicle id="354" depart="354.00">
        <route edges="0:1 1:3 3:7"/>
    </vehicle>
    <vehicle id="356" depart="356.00">
        <route edges="7:3 3:1 1:0 0:2"/>
    </vehicle>
    <vehicle id="364" depart="364.00">
        <route edges="2:0 0:1 1:5 5:6"/>
    </vehicle>
    <vehicle id="365" depart="365.00">
        <route edges="2:0 0:1 1:5"/>
    </vehicle>
    <vehicle id="366" depart="366.00">
        <route edges="1:5 5:6"/>
    </vehicle>
    <vehicle id="367" depart="367.00">
        <route edges="1:3 3:7"/>
    </vehicle>
    <vehicle id="368" depart="368.00">
        <route edges="0:1"/>
    </vehicle>
    <vehicle id="369" depart="369.00">
        <route edges="2:0 0:1 1:3 3:7"/>
    </vehicle>
    <vehicle id="371" depart="371.00">
        <route edges="2:0 0:1 1:3 3:7"/>
    </vehicle>
    <vehicle id="373" depart="373.00">
        <route edges="1:0 0:2"/>
    </vehicle>
    <vehicle id="375" depart="375.00">
        <route edges="6:5 5:1 1:0 0:2"/>
    </vehicle>
    <vehicle id="378" depart="378.00">
        <route edges="7:3 3:1 1:5 5:6"/>
    </vehicle>
    <vehicle id="379" depart="379.00">
        <route edges="3:1 1:0 0:2"/>
    </vehicle>
    <vehicle id="381" depart="381.00">
        <route edges="2:0 0:1 1:3 3:7"/>
    </vehicle>
    <vehicle id="388" depart="388.00">
        <route edges="1:0 0:2"/>
    </vehicle>
    <vehicle id="390" depart="390.00">
        <route edges="3:1 1:0"/>
    </vehicle>
    <vehicle id="391" depart="391.00">
        <route edges="7:3 3:1 1:5 5:6"/>
    </vehicle>
    <vehicle id="394" depart="394.00">
        <route edges="7:3 3:1 1:0 0:2"/>
    </vehicle>
    <vehicle id="395" depart="395.00">
        <route edges="3:1 1:5 5:6"/>
    </vehicle>
    <vehicle id="399" depart="399.00">
        <route edges="7:3 3:1 1:0 0:2"/>
    </vehicle>
    <vehicle id="400" depart="400.00">
        <route edges="2:0 0:1 1:3 3:7"/>
    </vehicle>
    <vehicle id="402" depart="402.00">
        <route edges="0:1 1:3"/>
    </vehicle>
    <vehicle id="403" depart="403.00">
        <route edges="0:1 1:3"/>
    </vehicle>
    <vehicle id="405" depart="405.00">
        <route edges="2:0 0:1"/>
    </vehicle>
    <vehicle id="407" depart="407.00">
        <route edges="3:1"/>
    </vehicle>
    <vehicle id="417" depart="417.00">
        <route edges="2:0 0:1"/>
    </vehicle>
    <vehicle id="418" depart="418.00">
        <route edges="3:1 1:0 0:2"/>
    </vehicle>
    <vehicle id="419" depart="419.00">
        <route edges="1:3 3:7"/>
    </vehicle>
    <vehicle id="420" depart="420.00">
        <route edges="2:0 0:1 1:3 3:7"/>
    </vehicle>
    <vehicle id="421" depart="421.00">
        <route edges="5:1 1:3 3:7"/>
    </vehicle>
    <vehicle id="422" depart="422.00">
        <route edges="7:3 3:1 1:0 0:2"/>
    </vehicle>
    <vehicle id="423" depart="423.00">
        <route edges="6:5 5:1 1:0 0:2"/>
    </vehicle>
    <vehicle id="424" depart="424.00">
        <route edges="0:1"/>
    </vehicle>
    <vehicle id="427" depart="427.00">
        <route edges="3:1 1:0"/>
    </vehicle>
    <vehicle id="431" depart="431.00">
        <route edges="3:1 1:0 0:2"/>
    </vehicle>
    <vehicle id="432" depart="432.00">
        <route edges="2:0 0:1 1:5"/>
    </vehicle>
    <vehicle id="435" depart="435.00">
        <route edges="2:0 0:1 1:3"/>
    </vehicle>
    <vehicle id="438" depart="438.00">
        <route edges="5:1 1:0 0:2"/>
    </vehicle>
    <vehicle id="441" depart="441.00">
        <route edges="3:1 1:5"/>
    </vehicle>
    <vehicle id="446" depart="446.00">
        <route edges="0:1 1:3 3:7"/>
    </vehicle>
    <vehicle id="447" depart="447.00">
        <route edges="1:3"/>
    </vehicle>
    <vehicle id="448" depart="448.00">
        <route edges="2:0 0:1"/>
    </vehicle>
    <vehicle id="449" depart="449.00">
        <route edges="7:3 3:1"/>
    </vehicle>
    <vehicle id="450" depart="450.00">
        <route edges="0:1 1:3 3:7"/>
    </vehicle>
    <vehicle id="451" depart="451.00">
        <route edges="0:1"/>
    </vehicle>
    <vehicle id="452" depart="452.00">
        <route edges="7:3 3:1 1:5 5:6"/>
    </vehicle>
    <vehicle id="453" depart="453.00">
        <route edges="7:3 3:1 1:5 5:6"/>
    </vehicle>
    <vehicle id="455" depart="455.00">
        <route edges="1:3"/>
    </vehicle>
    <vehicle id="460" depart="460.00">
        <route edges="7:3 3:1 1:5 5:6"/>
    </vehicle>
    <vehicle id="463" depart="463.00">
        <route edges="7:3 3:1 1:0"/>
    </vehicle>
    <vehicle id="465" depart="465.00">
        <route edges="7:3 3:1"/>
    </vehicle>
    <vehicle id="466" depart="466.00">
        <route edges="1:5"/>
    </vehicle>
    <vehicle id="468" depart="468.00">
        <route edges="7:3 3:1 1:0 0:2"/>
    </vehicle>
    <vehicle id="470" depart="470.00">
        <route edges="7:3 3:1 1:0 0:2"/>
    </vehicle>
    <vehicle id="471" depart="471.00">
        <route edges="1:3 3:7"/>
    </vehicle>
    <vehicle id="476" depart="476.00">
        <route edges="1:0"/>
    </vehicle>
    <vehicle id="477" depart="477.00">
        <route edges="2:0 0:1 1:3 3:7"/>
    </vehicle>
    <vehicle id="478" depart="478.00">
        <route edges="7:3 3:1 1:0 0:2"/>
    </vehicle>
    <vehicle id="481" depart="481.00">
        <route edges="2:0 0:1 1:3 3:7"/>
    </vehicle>
    <vehicle id="482" depart="482.00">
        <route edges="6:5 5:1 1:0 0:2"/>
    </vehicle>
    <vehicle id="483" depart="483.00">
        <route edges="7:3 3:1 1:0 0:2"/>
    </vehicle>
    <vehicle id="484" depart="484.00">
        <route edges="7:3 3:1 1:0"/>
    </vehicle>
    <vehicle id="486" depart="486.00">
        <route edges="5:1 1:0"/>
    </vehicle>
    <vehicle id="487" depart="487.00">
        <route edges="2:0 0:1 1:3"/>
    </vehicle>
    <vehicle id="490" depart="490.00">
        <route edges="7:3 3:1 1:0 0:2"/>
    </vehicle>
    <vehicle id="491" depart="491.00">
        <route edges="1:3 3:7"/>
    </vehicle>
    <vehicle id="493" depart="493.00">
        <route edges="0:1 1:5"/>
    </vehicle>
    <vehicle id="494" depart="494.00">
        <route edges="2:0 0:1 1:5"/>
    </vehicle>
    <vehicle id="497" depart="497.00">
        <route edges="6:5 5:1 1:0 0:2"/>
    </vehicle>
    <vehicle id="498" depart="498.00">
        <route edges="0:1 1:3 3:7"/>
    </vehicle>
    <vehicle id="501" depart="501.00">
        <route edges="1:5"/>
    </vehicle>
    <vehicle id="503" depart="503.00">
        <route edges="1:0 0:2"/>
    </vehicle>
    <vehicle id="505" depart="505.00">
        <route edges="3:1 1:0 0:2"/>
    </vehicle>
    <vehicle id="511" depart="511.00">
        <route edges="2:0 0:1 1:3 3:7"/>
    </vehicle>
    <vehicle id="512" depart="512.00">
        <route edges="0:1 1:3 3:7"/>
    </vehicle>
    <vehicle id="513" depart="513.00">
        <route edges="7:3 3:1 1:0 0:2"/>
    </vehicle>
    <vehicle id="515" depart="515.00">
        <route edges="6:5 5:1 1:3 3:7"/>
    </vehicle>
    <vehicle id="517" depart="517.00">
        <route edges="0:1 1:3 3:7"/>
    </vehicle>
    <vehicle id="519" depart="519.00">
        <route edges="0:1 1:3"/>
    </vehicle>
    <vehicle id="521" depart="521.00">
        <route edges="7:3 3:1 1:0"/>
    </vehicle>
    <vehicle id="523" depart="523.00">
        <route edges="7:3 3:1 1:0 0:2"/>
    </vehicle>
    <vehicle id="524" depart="524.00">
        <route edges="0:1 1:3 3:7"/>
    </vehicle>
    <vehicle id="525" depart="525.00">
        <route edges="7:3 3:1 1:0 0:2"/>
    </vehicle>
    <vehicle id="528" depart="528.00">
        <route edges="7:3 3:1"/>
    </vehicle>
    <vehicle id="529" depart="529.00">
        <route edges="1:0"/>
    </vehicle>
    <vehicle id="535" depart="535.00">
        <route edges="2:0 0:1 1:3"/>
    </vehicle>
    <vehicle id="536" depart="536.00">
        <route edges="2:0 0:1 1:3 3:7"/>
    </vehicle>
    <vehicle id="537" depart="537.00">
        <route edges="2:0 0:1 1:3 3:7"/>
    </vehicle>
    <vehicle id="539" depart="539.00">
        <route edges="1:0 0:2"/>
    </vehicle>
    <vehicle id="543" depart="543.00">
        <route edges="1:5 5:6"/>
    </vehicle>
    <vehicle id="544" depart="544.00">
        <route edges="2:0 0:1 1:5"/>
    </vehicle>
    <vehicle id="545" depart="545.00">
        <route edges="1:3 3:7"/>
    </vehicle>
    <vehicle id="546" depart="546.00">
        <route edges="7:3 3:1 1:0 0:2"/>
    </vehicle>
    <vehicle id="547" depart="547.00">
        <route edges="1:5"/>
    </vehicle>
    <vehicle id="548" depart="548.00">
        <route edges="2:0 0:1 1:3 3:7"/>
    </vehicle>
    <vehicle id="553" depart="553.00">
        <route edges="2:0 0:1 1:3"/>
    </vehicle>
    <vehicle id="554" depart="554.00">
        <route edges="2:0 0:1 1:3 3:7"/>
    </vehicle>
    <vehicle id="555" depart="555.00">
        <route edges="7:3 3:1 1:5 5:6"/>
    </vehicle>
    <vehicle id="557" depart="557.00">
        <route edges="6:5 5:1 1:0"/>
    </vehicle>
    <vehicle id="559" depart="559.00">
        <route edges="6:5 5:1 1:0 0:2"/>
    </vehicle>
    <vehicle id="561" depart="561.00">
        <route edges="7:3 3:1 1:0 0:2"/>
    </vehicle>
    <vehicle id="563" depart="563.00">
        <route edges="2:0 0:1 1:5"/>
    </vehicle>
    <vehicle id="564" depart="564.00">
        <route edges="7:3 3:1 1:0"/>
    </vehicle>
    <vehicle id="566" depart="566.00">
        <route edges="0:1 1:3 3:7"/>
    </vehicle>
    <vehicle id="570" depart="570.00">
        <route edges="2:0 0:1 1:3 3:7"/>
    </vehicle>
    <vehicle id="571" depart="571.00">
        <route edges="0:1"/>
    </vehicle>
    <vehicle id="573" depart="573.00">
        <route edges="7:3 3:1 1:0 0:2"/>
    </vehicle>
    <vehicle id="574" depart="574.00">
        <route edges="7:3 3:1"/>
    </vehicle>
    <vehicle id="575" depart="575.00">
        <route edges="2:0 0:1 1:3 3:7"/>
    </vehicle>
    <vehicle id="576" depart="576.00">
        <route edges="7:3 3:1 1:5 5:6"/>
    </vehicle>
    <vehicle id="578" depart="578.00">
        <route edges="1:0 0:2"/>
    </vehicle>
    <vehicle id="581" depart="581.00">
        <route edges="2:0 0:1 1:3 3:7"/>
    </vehicle>
    <vehicle id="583" depart="583.00">
        <route edges="1:3"/>
    </vehicle>
    <vehicle id="585" depart="585.00">
        <route edges="0:1 1:3 3:7"/>
    </vehicle>
    <vehicle id="586" depart="586.00">
        <route edges="6:5 5:1 1:3 3:7"/>
    </vehicle>
    <vehicle id="588" depart="588.00">
        <route edges="1:3"/>
    </vehicle>
    <vehicle id="589" depart="589.00">
        <route edges="0:1"/>
    </vehicle>
    <vehicle id="590" depart="590.00">
        <route edges="2:0 0:1 1:5"/>
    </vehicle>
    <vehicle id="592" depart="592.00">
        <route edges="5:1 1:3 3:7"/>
    </vehicle>
    <vehicle id="597" depart="597.00">
        <route edges="1:3 3:7"/>
    </vehicle>
    <vehicle id="598" depart="598.00">
        <route edges="7:3 3:1 1:5"/>
    </vehicle>
    <vehicle id="599" depart="599.00">
        <route edges="6:5 5:1 1:0"/>
    </vehicle>
    <vehicle id="600" depart="600.00">
        <route edges="6:5 5:1 1:3 3:7"/>
    </vehicle>
    <vehicle id="601" depart="601.00">
        <route edges="6:5 5:1 1:3 3:7"/>
    </vehicle>
    <vehicle id="603" depart="603.00">
        <route edges="7:3 3:1"/>
    </vehicle>
    <vehicle id="604" depart="604.00">
        <route edges="6:5 5:1 1:3 3:7"/>
    </vehicle>
    <vehicle id="605" depart="605.00">
        <route edges="0:1 1:3 3:7"/>
    </vehicle>
    <vehicle id="606" depart="606.00">
        <route edges="7:3 3:1 1:0"/>
    </vehicle>
    <vehicle id="607" depart="607.00">
        <route edges="2:0 0:1 1:3 3:7"/>
    </vehicle>
    <vehicle id="608" depart="608.00">
        <route edges="1:5 5:6"/>
    </vehicle>
    <vehicle id="609" depart="609.00">
        <route edges="1:3"/>
    </vehicle>
    <vehicle id="610" depart="610.00">
        <route edges="2:0 0:1 1:3 3:7"/>
    </vehicle>
    <vehicle id="611" depart="611.00">
        <route edges="3:1 1:0"/>
    </vehicle>
    <vehicle id="612" depart="612.00">
        <route edges="2:0 0:1 1:5"/>
    </vehicle>
    <vehicle id="618" depart="618.00">
        <route edges="3:1"/>
    </vehicle>
    <vehicle id="623" depart="623.00">
        <route edges="2:0 0:1 1:5"/>
    </vehicle>
    <vehicle id="633" depart="633.00">
        <route edges="0:1 1:5"/>
    </vehicle>
    <vehicle id="635" depart="635.00">
        <route edges="0:1 1:3 3:7"/>
    </vehicle>
    <vehicle id="637" depart="637.00">
        <route edges="7:3 3:1 1:0 0:2"/>
    </vehicle>
    <vehicle id="639" depart="639.00">
        <route edges="0:1 1:3"/>
    </vehicle>
    <vehicle id="642" depart="642.00">
        <route edges="7:3 3:1 1:0 0:2"/>
    </vehicle>
    <vehicle id="643" depart="643.00">
        <route edges="3:1 1:5 5:6"/>
    </vehicle>
    <vehicle id="644" depart="644.00">
        <route edges="6:5 5:1 1:0"/>
    </vehicle>
    <vehicle id="645" depart="645.00">