<?xml version="1.0" encoding="UTF-8"?>

<!-- generated on Thu Feb 13 12:39:43 2014 by SUMO duarouter Version 0.18.0
<?xml version="1.0" encoding="UTF-8"?>

<configuration xmlns:xsi="http://www.w3.org/2001/XMLSchema-instance" xsi:noNamespaceSchemaLocation="http://sumo.sf.net/xsd/duarouterConfiguration.xsd">

    <input>
        <net-file value="simpleT.net.xml"/>
        <trip-files value="experimentos/simpleT.p0.7.9.trips.xml"/>
    </input>

    <output>
        <output-file value="experimentos/simpleT.p0.7.9.rou.xml"/>
    </output>

    <processing>
        <ignore-errors value="true"/>
    </processing>

    <random_number>
        <random value="true"/>
    </random_number>

</configuration>
-->

<routes xmlns:xsi="http://www.w3.org/2001/XMLSchema-instance" xsi:noNamespaceSchemaLocation="http://sumo.sf.net/xsd/routes_file.xsd">
    <vehicle id="0" depart="0.00">
        <route edges="2:0 0:1 1:3 3:7"/>
    </vehicle>
    <vehicle id="2" depart="1.40">
        <route edges="6:5 5:1 1:3 3:7"/>
    </vehicle>
    <vehicle id="5" depart="3.50">
        <route edges="2:0 0:1 1:3"/>
    </vehicle>
    <vehicle id="9" depart="6.30">
        <route edges="1:0"/>
    </vehicle>
    <vehicle id="10" depart="7.00">
        <route edges="0:1 1:3 3:7"/>
    </vehicle>
    <vehicle id="11" depart="7.70">
        <route edges="2:0 0:1 1:3"/>
    </vehicle>
    <vehicle id="14" depart="9.80">
        <route edges="2:0 0:1 1:3 3:7"/>
    </vehicle>
    <vehicle id="15" depart="10.50">
        <route edges="7:3 3:1 1:0"/>
    </vehicle>
    <vehicle id="18" depart="12.60">
        <route edges="6:5 5:1 1:0 0:2"/>
    </vehicle>
    <vehicle id="19" depart="13.30">
        <route edges="1:3"/>
    </vehicle>
    <vehicle id="27" depart="18.90">
        <route edges="1:3 3:7"/>
    </vehicle>
    <vehicle id="28" depart="19.60">
        <route edges="6:5 5:1 1:0 0:2"/>
    </vehicle>
    <vehicle id="31" depart="21.70">
        <route edges="7:3 3:1 1:5 5:6"/>
    </vehicle>
    <vehicle id="32" depart="22.40">
        <route edges="5:1 1:3"/>
    </vehicle>
    <vehicle id="34" depart="23.80">
        <route edges="6:5 5:1 1:0 0:2"/>
    </vehicle>
    <vehicle id="35" depart="24.50">
        <route edges="1:3 3:7"/>
    </vehicle>
    <vehicle id="37" depart="25.90">
        <route edges="3:1"/>
    </vehicle>
    <vehicle id="38" depart="26.60">
        <route edges="5:1 1:0"/>
    </vehicle>
    <vehicle id="39" depart="27.30">
        <route edges="2:0 0:1 1:3 3:7"/>
    </vehicle>
    <vehicle id="42" depart="29.40">
        <route edges="6:5 5:1 1:3 3:7"/>
    </vehicle>
    <vehicle id="47" depart="32.90">
        <route edges="1:0 0:2"/>
    </vehicle>
    <vehicle id="48" depart="33.60">
        <route edges="7:3 3:1 1:5 5:6"/>
    </vehicle>
    <vehicle id="50" depart="35.00">
        <route edges="2:0 0:1 1:5 5:6"/>
    </vehicle>
    <vehicle id="52" depart="36.40">
        <route edges="2:0 0:1 1:3 3:7"/>
    </vehicle>
    <vehicle id="53" depart="37.10">
        <route edges="2:0 0:1 1:3 3:7"/>
    </vehicle>
    <vehicle id="57" depart="39.90">
        <route edges="7:3 3:1 1:5 5:6"/>
    </vehicle>
    <vehicle id="58" depart="40.60">
        <route edges="1:3"/>
    </vehicle>
    <vehicle id="61" depart="42.70">
        <route edges="0:1 1:3"/>
    </vehicle>
    <vehicle id="62" depart="43.40">
        <route edges="7:3 3:1 1:0 0:2"/>
    </vehicle>
    <vehicle id="64" depart="44.80">
        <route edges="2:0 0:1 1:5 5:6"/>
    </vehicle>
    <vehicle id="65" depart="45.50">
        <route edges="2:0 0:1 1:5 5:6"/>
    </vehicle>
    <vehicle id="67" depart="46.90">
        <route edges="0:1 1:3 3:7"/>
    </vehicle>
    <vehicle id="68" depart="47.60">
        <route edges="3:1 1:0 0:2"/>
    </vehicle>
    <vehicle id="71" depart="49.70">
        <route edges="7:3 3:1 1:0"/>
    </vehicle>
    <vehicle id="72" depart="50.40">
        <route edges="7:3 3:1"/>
    </vehicle>
    <vehicle id="76" depart="53.20">
        <route edges="6:5 5:1 1:0 0:2"/>
    </vehicle>
    <vehicle id="79" depart="55.30">
        <route edges="7:3 3:1 1:5 5:6"/>
    </vehicle>
    <vehicle id="80" depart="56.00">
        <route edges="7:3 3:1 1:0 0:2"/>
    </vehicle>
    <vehicle id="82" depart="57.40">
        <route edges="7:3 3:1 1:5"/>
    </vehicle>
    <vehicle id="83" depart="58.10">
        <route edges="6:5 5:1 1:3 3:7"/>
    </vehicle>
    <vehicle id="84" depart="58.80">
        <route edges="2:0 0:1 1:3 3:7"/>
    </vehicle>
    <vehicle id="87" depart="60.90">
        <route edges="5:1 1:0 0:2"/>
    </vehicle>
    <vehicle id="90" depart="63.00">
        <route edges="2:0 0:1"/>
    </vehicle>
    <vehicle id="95" depart="66.50">
        <route edges="7:3 3:1 1:0 0:2"/>
    </vehicle>
    <vehicle id="96" depart="67.20">
        <route edges="5:1 1:0 0:2"/>
    </vehicle>
    <vehicle id="97" depart="67.90">
        <route edges="1:0 0:2"/>
    </vehicle>
    <vehicle id="99" depart="69.30">
        <route edges="0:1 1:3 3:7"/>
    </vehicle>
    <vehicle id="100" depart="70.00">
        <route edges="1:3 3:7"/>
    </vehicle>
    <vehicle id="104" depart="72.80">
        <route edges="2:0 0:1"/>
    </vehicle>
    <vehicle id="106" depart="74.20">
        <route edges="2:0 0:1 1:3 3:7"/>
    </vehicle>
    <vehicle id="110" depart="77.00">
        <route edges="3:1 1:0"/>
    </vehicle>
    <vehicle id="113" depart="79.10">
        <route edges="1:0 0:2"/>
    </vehicle>
    <vehicle id="115" depart="80.50">
        <route edges="3:1 1:0 0:2"/>
    </vehicle>
    <vehicle id="116" depart="81.20">
        <route edges="0:1 1:3 3:7"/>
    </vehicle>
    <vehicle id="121" depart="84.70">
        <route edges="7:3 3:1 1:5 5:6"/>
    </vehicle>
    <vehicle id="123" depart="86.10">
        <route edges="0:1 1:3"/>
    </vehicle>
    <vehicle id="125" depart="87.50">
        <route edges="7:3 3:1 1:0 0:2"/>
    </vehicle>
    <vehicle id="127" depart="88.90">
        <route edges="7:3 3:1 1:0"/>
    </vehicle>
    <vehicle id="128" depart="89.60">
        <route edges="3:1 1:5"/>
    </vehicle>
    <vehicle id="130" depart="91.00">
        <route edges="7:3 3:1 1:5 5:6"/>
    </vehicle>
    <vehicle id="132" depart="92.40">
        <route edges="0:1"/>
    </vehicle>
    <vehicle id="134" depart="93.80">
        <route edges="3:1 1:0 0:2"/>
    </vehicle>
    <vehicle id="137" depart="95.90">
        <route edges="7:3 3:1"/>
    </vehicle>
    <vehicle id="138" depart="96.60">
        <route edges="0:1 1:5"/>
    </vehicle>
    <vehicle id="140" depart="98.00">
        <route edges="1:0 0:2"/>
    </vehicle>
    <vehicle id="143" depart="100.10">
        <route edges="3:1"/>
    </vehicle>
    <vehicle id="146" depart="102.20">
        <route edges="7:3 3:1"/>
    </vehicle>
    <vehicle id="147" depart="102.90">
        <route edges="2:0 0:1 1:3 3:7"/>
    </vehicle>
    <vehicle id="148" depart="103.60">
        <route edges="0:1 1:3 3:7"/>
    </vehicle>
    <vehicle id="150" depart="105.00">
        <route edges="3:1 1:0 0:2"/>
    </vehicle>
    <vehicle id="153" depart="107.10">
        <route edges="1:0 0:2"/>
    </vehicle>
    <vehicle id="154" depart="107.80">
        <route edges="3:1"/>
    </vehicle>
    <vehicle id="158" depart="110.60">
        <route edges="7:3 3:1 1:0"/>
    </vehicle>
    <vehicle id="159" depart="111.30">
        <route edges="3:1"/>
    </vehicle>
    <vehicle id="161" depart="112.70">
        <route edges="0:1 1:3 3:7"/>
    </vehicle>
    <vehicle id="162" depart="113.40">
        <route edges="5:1 1:3 3:7"/>
    </vehicle>
    <vehicle id="163" depart="114.10">
        <route edges="1:3 3:7"/>
    </vehicle>
    <vehicle id="165" depart="115.50">
        <route edges="2:0 0:1"/>
    </vehicle>
    <vehicle id="166" depart="116.20">
        <route edges="0:1"/>
    </vehicle>
    <vehicle id="168" depart="117.60">
        <route edges="6:5 5:1 1:3"/>
    </vehicle>
    <vehicle id="174" depart="121.80">
        <route edges="6:5 5:1 1:0"/>
    </vehicle>
    <vehicle id="175" depart="122.50">
        <route edges="6:5 5:1 1:0"/>
    </vehicle>
    <vehicle id="178" depart="124.60">
        <route edges="3:1 1:0 0:2"/>
    </vehicle>
    <vehicle id="179" depart="125.30">
        <route edges="3:1"/>
    </vehicle>
    <vehicle id="180" depart="126.00">
        <route edges="2:0 0:1 1:3 3:7"/>
    </vehicle>
    <vehicle id="181" depart="126.70">
        <route edges="2:0 0:1 1:3"/>
    </vehicle>
    <vehicle id="184" depart="128.80">
        <route edges="0:1 1:5 5:6"/>
    </vehicle>
    <vehicle id="185" depart="129.50">
        <route edges="6:5 5:1 1:3 3:7"/>
    </vehicle>
    <vehicle id="187" depart="130.90">
        <route edges="2:0 0:1"/>
    </vehicle>
    <vehicle id="188" depart="131.60">
        <route edges="0:1 1:3 3:7"/>
    </vehicle>
    <vehicle id="190" depart="133.00">
        <route edges="2:0 0:1 1:3 3:7"/>
    </vehicle>
    <vehicle id="192" depart="134.40">
        <route edges="0:1"/>
    </vehicle>
    <vehicle id="195" depart="136.50">
        <route edges="1:3 3:7"/>
    </vehicle>
    <vehicle id="196" depart="137.20">
        <route edges="3:1 1:5 5:6"/>
    </vehicle>
    <vehicle id="199" depart="139.30">
        <route edges="6:5 5:1 1:0 0:2"/>
    </vehicle>
    <vehicle id="200" depart="140.00">
        <route edges="7:3 3:1 1:5 5:6"/>
    </vehicle>
    <vehicle id="202" depart="141.40">
        <route edges="0:1 1:3 3:7"/>
    </vehicle>
    <vehicle id="203" depart="142.10">
        <route edges="1:0 0:2"/>
    </vehicle>
    <vehicle id="204" depart="142.80">
        <route edges="3:1 1:0 0:2"/>
    </vehicle>
    <vehicle id="213" depart="149.10">
        <route edges="1:0"/>
    </vehicle>
    <vehicle id="214" depart="149.80">
        <route edges="3:1 1:0 0:2"/>
    </vehicle>
    <vehicle id="215" depart="150.50">
        <route edges="1:3"/>
    </vehicle>
    <vehicle id="217" depart="151.90">
        <route edges="0:1 1:5 5:6"/>
    </vehicle>
    <vehicle id="219" depart="153.30">
        <route edges="2:0 0:1 1:3 3:7"/>
    </vehicle>
    <vehicle id="220" depart="154.00">
        <route edges="7:3 3:1 1:0"/>
    </vehicle>
    <vehicle id="221" depart="154.70">
        <route edges="2:0 0:1 1:3"/>
    </vehicle>
    <vehicle id="222" depart="155.40">
        <route edges="7:3 3:1 1:0 0:2"/>
    </vehicle>
    <vehicle id="223" depart="156.10">
        <route edges="2:0 0:1 1:5"/>
    </vehicle>
    <vehicle id="225" depart="157.50">
        <route edges="2:0 0:1 1:5"/>
    </vehicle>
    <vehicle id="227" depart="158.90">
        <route edges="1:0"/>
    </vehicle>
    <vehicle id="228" depart="159.60">
        <route edges="5:1 1:0"/>
    </vehicle>
    <vehicle id="229" depart="160.30">
        <route edges="0:1 1:5 5:6"/>
    </vehicle>
    <vehicle id="231" depart="161.70">
        <route edges="6:5 5:1 1:0 0:2"/>
    </vehicle>
    <vehicle id="232" depart="162.40">
        <route edges="7:3 3:1"/>
    </vehicle>
    <vehicle id="234" depart="163.80">
        <route edges="2:0 0:1 1:3 3:7"/>
    </vehicle>
    <vehicle id="235" depart="164.50">
        <route edges="2:0 0:1 1:5 5:6"/>
    </vehicle>
    <vehicle id="238" depart="166.60">
        <route edges="0:1 1:5"/>
    </vehicle>
    <vehicle id="239" depart="167.30">
        <route edges="0:1"/>
    </vehicle>
    <vehicle id="243" depart="170.10">
        <route edges="1:3 3:7"/>
    </vehicle>
    <vehicle id="244" depart="170.80">
        <route edges="2:0 0:1 1:5"/>
    </vehicle>
    <vehicle id="245" depart="171.50">
        <route edges="3:1"/>
    </vehicle>
    <vehicle id="246" depart="172.20">
        <route edges="7:3 3:1 1:5 5:6"/>
    </vehicle>
    <vehicle id="247" depart="172.90">
        <route edges="1:3"/>
    </vehicle>
    <vehicle id="248" depart="173.60">
        <route edges="2:0 0:1 1:3"/>
    </vehicle>
    <vehicle id="252" depart="176.40">
        <route edges="1:0 0:2"/>
    </vehicle>
    <vehicle id="256" depart="179.20">
        <route edges="7:3 3:1 1:0 0:2"/>
    </vehicle>
    <vehicle id="257" depart="179.90">
        <route edges="0:1 1:3 3:7"/>
    </vehicle>
    <vehicle id="258" depart="180.60">
        <route edges="3:1 1:0"/>
    </vehicle>
    <vehicle id="260" depart="182.00">
        <route edges="0:1 1:3 3:7"/>
    </vehicle>
    <vehicle id="262" depart="183.40">
        <route edges="1:0 0:2"/>
    </vehicle>
    <vehicle id="264" depart="184.80">
        <route edges="1:0"/>
    </vehicle>
    <vehicle id="265" depart="185.50">
        <route edges="7:3 3:1"/>
    </vehicle>
    <vehicle id="267" depart="186.90">
        <route edges="2:0 0:1 1:3 3:7"/>
    </vehicle>
    <vehicle id="271" depart="189.70">
        <route edges="7:3 3:1 1:0"/>
    </vehicle>
    <vehicle id="273" depart="191.10">
        <route edges="0:1 1:3 3:7"/>
    </vehicle>
    <vehicle id="279" depart="195.30">
        <route edges="7:3 3:1 1:0"/>
    </vehicle>
    <vehicle id="281" depart="196.70">
        <route edges="3:1"/>
    </vehicle>
    <vehicle id="282" depart="197.40">
        <route edges="2:0 0:1 1:5 5:6"/>
    </vehicle>
    <vehicle id="284" depart="198.80">
        <route edges="2:0 0:1 1:5"/>
    </vehicle>
    <vehicle id="289" depart="202.30">
        <route edges="0:1 1:3 3:7"/>
    </vehicle>
    <vehicle id="291" depart="203.70">
        <route edges="7:3 3:1 1:0 0:2"/>
    </vehicle>
    <vehicle id="293" depart="205.10">
        <route edges="7:3 3:1"/>
    </vehicle>
    <vehicle id="294" depart="205.80">
        <route edges="0:1 1:5"/>
    </vehicle>
    <vehicle id="299" depart="209.30">
        <route edges="5:1 1:0"/>
    </vehicle>
    <vehicle id="301" depart="210.70">
        <route edges="2:0 0:1 1:3"/>
    </vehicle>
    <vehicle id="304" depart="212.80">
        <route edges="1:0 0:2"/>
    </vehicle>
    <vehicle id="307" depart="214.90">
        <route edges="7:3 3:1"/>
    </vehicle>
    <vehicle id="310" depart="217.00">
        <route edges="7:3 3:1 1:0 0:2"/>
    </vehicle>
    <vehicle id="312" depart="218.40">
        <route edges="3:1"/>
    </vehicle>
    <vehicle id="313" depart="219.10">
        <route edges="2:0 0:1"/>
    </vehicle>
    <vehicle id="314" depart="219.80">
        <route edges="2:0 0:1 1:3 3:7"/>
    </vehicle>
    <vehicle id="315" depart="220.50">
        <route edges="7:3 3:1 1:0"/>
    </vehicle>
    <vehicle id="320" depart="224.00">
        <route edges="5:1 1:0 0:2"/>
    </vehicle>
    <vehicle id="323" depart="226.10">
        <route edges="7:3 3:1 1:5 5:6"/>
    </vehicle>
    <vehicle id="327" depart="228.90">
        <route edges="7:3 3:1 1:0 0:2"/>
    </vehicle>
    <vehicle id="331" depart="231.70">
        <route edges="1:0"/>
    </vehicle>
    <vehicle id="332" depart="232.40">
        <route edges="3:1 1:0"/>
    </vehicle>
    <vehicle id="333" depart="233.10">
        <route edges="2:0 0:1 1:3 3:7"/>
    </vehicle>
    <vehicle id="334" depart="233.80">
        <route edges="2:0 0:1"/>
    </vehicle>
    <vehicle id="339" depart="237.30">
        <route edges="0:1 1:3"/>
    </vehicle>
    <vehicle id="341" depart="238.70">
        <route edges="1:0 0:2"/>
    </vehicle>
    <vehicle id="342" depart="239.40">
        <route edges="0:1 1:3"/>
    </vehicle>
    <vehicle id="343" depart="240.10">
        <route edges="7:3 3:1 1:5 5:6"/>
    </vehicle>
    <vehicle id="346" depart="242.20">
        <route edges="3:1 1:0"/>
    </vehicle>
    <vehicle id="348" depart="243.60">
        <route edges="0:1 1:5 5:6"/>
    </vehicle>
    <vehicle id="349" depart="244.30">
        <route edges="1:0 0:2"/>
    </vehicle>
    <vehicle id="353" depart="247.10">
        <route edges="0:1 1:3 3:7"/>
    </vehicle>
    <vehicle id="354" depart="247.80">
        <route edges="2:0 0:1 1:3 3:7"/>
    </vehicle>
    <vehicle id="356" depart="249.20">
        <route edges="1:3"/>
    </vehicle>
    <vehicle id="360" depart="252.00">
        <route edges="3:1 1:0 0:2"/>
    </vehicle>
    <vehicle id="362" depart="253.40">
        <route edges="6:5 5:1 1:0"/>
    </vehicle>
    <vehicle id="368" depart="257.60">
        <route edges="3:1 1:0 0:2"/>
    </vehicle>
    <vehicle id="369" depart="258.30">
        <route edges="6:5 5:1 1:0"/>
    </vehicle>
    <vehicle id="370" depart="259.00">
        <route edges="7:3 3:1 1:5 5:6"/>
    </vehicle>
    <vehicle id="371" depart="259.70">
        <route edges="7:3 3:1 1:0"/>
    </vehicle>
    <vehicle id="376" depart="263.20">
        <route edges="7:3 3:1"/>
    </vehicle>
    <vehicle id="383" depart="268.10">
        <route edges="7:3 3:1"/>
    </vehicle>
    <vehicle id="384" depart="268.80">
        <route edges="2:0 0:1 1:3"/>
    </vehicle>
    <vehicle id="386" depart="270.20">
        <route edges="0:1 1:3 3:7"/>
    </vehicle>
    <vehicle id="387" depart="270.90">
        <route edges="7:3 3:1"/>
    </vehicle>
    <vehicle id="388" depart="271.60">
        <route edges="1:0 0:2"/>
    </vehicle>
    <vehicle id="392" depart="274.40">
        <route edges="0:1"/>
    </vehicle>
    <vehicle id="393" depart="275.10">
        <route edges="2:0 0:1 1:3 3:7"/>
    </vehicle>
    <vehicle id="394" depart="275.80">
        <route edges="7:3 3:1 1:0"/>
    </vehicle>
    <vehicle id="395" depart="276.50">
        <route edges="0:1 1:5"/>
    </vehicle>
    <vehicle id="396" depart="277.20">
        <route edges="0:1"/>
    </vehicle>
    <vehicle id="397" depart="277.90">
        <route edges="1:0 0:2"/>
    </vehicle>
    <vehicle id="400" depart="280.00">
        <route edges="1:0 0:2"/>
    </vehicle>
    <vehicle id="401" depart="280.70">
        <route edges="1:3 3:7"/>
    </vehicle>
    <vehicle id="402" depart="281.40">
        <route edges="7:3 3:1 1:0 0:2"/>
    </vehicle>
    <vehicle id="403" depart="282.10">
        <route edges="7:3 3:1 1:0 0:2"/>
    </vehicle>
    <vehicle id="404" depart="282.80">
        <route edges="2:0 0:1 1:3 3:7"/>
    </vehicle>
    <vehicle id="406" depart="284.20">
        <route edges="6:5 5:1 1:0 0:2"/>
    </vehicle>
    <vehicle id="407" depart="284.90">
        <route edges="2:0 0:1 1:5 5:6"/>
    </vehicle>
    <vehicle id="409" depart="286.30">
        <route edges="2:0 0:1 1:3 3:7"/>
    </vehicle>
    <vehicle id="410" depart="287.00">
        <route edges="2:0 0:1 1:3"/>
    </vehicle>
    <vehicle id="411" depart="287.70">
        <route edges="3:1 1:5 5:6"/>
    </vehicle>
    <vehicle id="413" depart="289.10">
        <route edges="7:3 3:1"/>
    </vehicle>
    <vehicle id="421" depart="294.70">
        <route edges="2:0 0:1 1:3 3:7"/>
    </vehicle>
    <vehicle id="422" depart="295.40">
        <route edges="6:5 5:1 1:0"/>
    </vehicle>
    <vehicle id="423" depart="296.10">
        <route edges="3:1"/>
    </vehicle>
    <vehicle id="424" depart="296.80">
        <route edges="1:0"/>
    </vehicle>
    <vehicle id="425" depart="297.50">
        <route edges="7:3 3:1 1:0 0:2"/>
    </vehicle>
    <vehicle id="427" depart="298.90">
        <route edges="1:0 0:2"/>
    </vehicle>
    <vehicle id="432" depart="302.40">
        <route edges="0:1 1:5"/>
    </vehicle>
    <vehicle id="433" depart="303.10">
        <route edges="0:1 1:3 3:7"/>
    </vehicle>
    <vehicle id="434" depart="303.80">
        <route edges="2:0 0:1 1:3 3:7"/>
    </vehicle>
    <vehicle id="435" depart="304.50">
        <route edges="0:1 1:3"/>
    </vehicle>
    <vehicle id="438" depart="306.60">
        <route edges="2:0 0:1 1:3"/>
    </vehicle>
    <vehicle id="439" depart="307.30">
        <route edges="6:5 5:1 1:0"/>
    </vehicle>
    <vehicle id="440" depart="308.00">
        <route edges="7:3 3:1 1:0 0:2"/>
    </vehicle>
    <vehicle id="443" depart="310.10">
        <route edges="2:0 0:1 1:5 5:6"/>
    </vehicle>
    <vehicle id="449" depart="314.30">
        <route edges="1:5 5:6"/>
    </vehicle>
    <vehicle id="452" depart="316.40">
        <route edges="2:0 0:1 1:3 3:7"/>
    </vehicle>
    <vehicle id="455" depart="318.50">
        <route edges="6:5 5:1"/>
    </vehicle>
    <vehicle id="457" depart="319.90">
        <route edges="7:3 3:1 1:0"/>
    </vehicle>
    <vehicle id="459" depart="321.30">
        <route edges="2:0 0:1 1:3 3:7"/>
    </vehicle>
    <vehicle id="460" depart="322.00">
        <route edges="2:0 0:1 1:3 3:7"/>
    </vehicle>
    <vehicle id="461" depart="322.70">
        <route edges="2:0 0:1"/>
    </vehicle>
    <vehicle id="463" depart="324.10">
        <route edges="7:3 3:1 1:0"/>
    </vehicle>
    <vehicle id="466" depart="326.20">
        <route edges="0:1 1:5 5:6"/>
    </vehicle>
    <vehicle id="468" depart="327.60">
        <route edges="7:3 3:1 1:0"/>
    </vehicle>
    <vehicle id="469" depart="328.30">
        <route edges="0:1 1:5 5:6"/>
    </vehicle>
    <vehicle id="470" depart="329.00">
        <route edges="7:3 3:1 1:0 0:2"/>
    </vehicle>
    <vehicle id="472" depart="330.40">
        <route edges="7:3 3:1 1:0 0:2"/>
    </vehicle>
    <vehicle id="474" depart="331.80">
        <route edges="2:0 0:1 1:3"/>
    </vehicle>
    <vehicle id="477" depart="333.90">
        <route edges="2:0 0:1 1:3 3:7"/>
    </vehicle>
    <vehicle id="478" depart="334.60">
        <route edges="2:0 0:1 1:3 3:7"/>
    </vehicle>
    <vehicle id="480" depart="336.00">
        <route edges="7:3 3:1"/>
    </vehicle>
    <vehicle id="482" depart="337.40">
        <route edges="3:1 1:0"/>
    </vehicle>
    <vehicle id="484" depart="338.80">
        <route edges="3:1 1:0"/>
    </vehicle>
    <vehicle id="485" depart="339.50">
        <route edges="3:1"/>
    </vehicle>
    <vehicle id="487" depart="340.90">
        <route edges="7:3 3:1"/>
    </vehicle>
    <vehicle id="488" depart="341.60">
        <route edges="3:1"/>
    </vehicle>
    <vehicle id="490" depart="343.00">
        <route edges="2:0 0:1 1:5 5:6"/>
    </vehicle>
    <vehicle id="493" depart="345.10">
        <route edges="7:3 3:1 1:5 5:6"/>
    </vehicle>
    <vehicle id="495" depart="346.50">
        <route edges="3:1 1:5"/>
    </vehicle>
    <vehicle id="496" depart="347.20">
        <route edges="7:3 3:1 1:0 0:2"/>
    </vehicle>
    <vehicle id="498" depart="348.60">
        <route edges="5:1 1:0 0:2"/>
    </vehicle>
    <vehicle id="500" depart="350.00">
        <route edges="7:3 3:1 1:5 5:6"/>
    </vehicle>
    <vehicle id="501" depart="350.70">
        <route edges="1:0"/>
    </vehicle>
    <vehicle id="502" depart="351.40">
        <route edges="7:3 3:1 1:0 0:2"/>
    </vehicle>
    <vehicle id="504" depart="352.80">
        <route edges="3:1"/>
    </vehicle>
    <vehicle id="509" depart="356.30">
        <route edges="3:1 1:0 0:2"/>
    </vehicle>
    <vehicle id="512" depart="358.40">
        <route edges="2:0 0:1 1:3 3:7"/>
    </vehicle>
    <vehicle id="516" depart="361.20">
        <route edges="3:1 1:0 0:2"/>
    </vehicle>
    <vehicle id="517" depart="361.90">
        <route edges="1:0 0:2"/>
    </vehicle>
    <vehicle id="519" depart="363.30">
        <route edges="3:1 1:0"/>
    </vehicle>
    <vehicle id="523" depart="366.10">
        <route edges="7:3 3:1"/>
    </vehicle>
    <vehicle id="524" depart="366.80">
        <route edges="2:0 0:1 1:3"/>
    </vehicle>
    <vehicle id="525" depart="367.50">
        <route edges="5:1 1:3"/>
    </vehicle>
    <vehicle id="526" depart="368.20">
        <route edges="7:3 3:1"/>
    </vehicle>
    <vehicle id="529" depart="370.30">
        <route edges="1:0"/>
    </vehicle>
    <vehicle id="531" depart="371.70">
        <route edges="2:0 0:1 1:3 3:7"/>
    </vehicle>
    <vehicle id="532" depart="372.40">
        <route edges="2:0 0:1 1:5 5:6"/>
    </vehicle>
    <vehicle id="533" depart="373.10">
        <route edges="7:3 3:1 1:0"/>
    </vehicle>
    <vehicle id="534" depart="373.80">
        <route edges="2:0 0:1 1:3 3:7"/>
    </vehicle>
    <vehicle id="535" depart="374.50">
        <route edges="1:0"/>
    </vehicle>
    <vehicle id="537" depart="375.90">
        <route edges="2:0 0:1"/>
    </vehicle>
    <vehicle id="538" depart="376.60">
        <route edges="1:3 3:7"/>
    </vehicle>
    <vehicle id="539" depart="377.30">
        <route edges="0:1 1:3"/>
    </vehicle>
    <vehicle id="543" depart="380.10">
        <route edges="7:3 3:1 1:0 0:2"/>
    </vehicle>
    <vehicle id="544" depart="380.80">
        <route edges="5:1 1:0 0:2"/>
    </vehicle>
    <vehicle id="546" depart="382.20">
        <route edges="2:0 0:1 1:3 3:7"/>
    </vehicle>
    <vehicle id="547" depart="382.90">
        <route edges="3:1 1:0 0:2"/>
    </vehicle>
    <vehicle id="548" depart="383.60">
        <route edges="2:0 0:1"/>
    </vehicle>
    <vehicle id="549" depart="384.30">
        <route edges="2:0 0:1 1:3 3:7"/>
    </vehicle>
    <vehicle id="551" depart="385.70">
        <route edges="2:0 0:1 1:5 5:6"/>
    </vehicle>
    <vehicle id="552" depart="386.40">
        <route edges="0:1 1:3 3:7"/>
    </vehicle>
    <vehicle id="553" depart="387.10">
        <route edges="7:3 3:1 1:0 0:2"/>
    </vehicle>
    <vehicle id="557" depart="389.90">
        <route edges="7:3 3:1 1:0 0:2"/>
    </vehicle>
    <vehicle id="559" depart="391.30">
        <route edges="2:0 0:1 1:3 3:7"/>
    </vehicle>
    <vehicle id="564" depart="394.80">
        <route edges="2:0 0:1 1:3 3:7"/>
    </vehicle>
    <vehicle id="566" depart="396.20">
        <route edges="7:3 3:1 1:5"/>
    </vehicle>
    <vehicle id="567" depart="396.90">
        <route edges="7:3 3:1 1:0 0:2"/>
    </vehicle>
    <vehicle id="568" depart="397.60">
        <route edges="0:1 1:5 5:6"/>
    </vehicle>
    <vehicle id="569" depart="398.30">
        <route edges="2:0 0:1"/>
    </vehicle>
    <vehicle id="570" depart="399.00">
        <route edges="7:3 3:1 1:0"/>
    </vehicle>
    <vehicle id="571" depart="399.70">
        <route edges="6:5 5:1 1:3 3:7"/>
    </vehicle>
    <vehicle id="574" depart="401.80">
        <route edges="2:0 0:1 1:3"/>
    </vehicle>
    <vehicle id="575" depart="402.50">
        <route edges="1:3 3:7"/>
    </vehicle>
    <vehicle id="578" depart="404.60">
        <route edges="1:3 3:7"/>
    </vehicle>
    <vehicle id="579" depart="405.30">
        <route edges="3:1 1:0 0:2"/>
    </vehicle>
    <vehicle id="581" depart="406.70">
        <route edges="1:0 0:2"/>
    </vehicle>
    <vehicle id="583" depart="408.10">
        <route edges="3:1 1:0 0:2"/>
    </vehicle>
    <vehicle id="584" depart="408.80">
        <route edges="7:3 3:1 1:0 0:2"/>
    </vehicle>
    <vehicle id="585" depart="409.50">
        <route edges="3:1"/>
    </vehicle>
    <vehicle id="588" depart="411.60">
        <route edges="7:3 3:1"/>
    </vehicle>
    <vehicle id="592" depart="414.40">
        <route edges="3:1 1:0"/>
    </vehicle>
    <vehicle id="593" depart="415.10">
        <route edges="7:3 3:1 1:0 0:2"/>
    </vehicle>
    <vehicle id="594" depart="415.80">
        <route edges="3:1"/>
    </vehicle>
    <vehicle id="597" depart="417.90">
        <route edges="3:1"/>
    </vehicle>
    <vehicle id="598" depart="418.60">
        <route edges="7:3 3:1 1:0 0:2"/>
    </vehicle>
    <vehicle id="599" depart="419.30">
        <route edges="0:1 1:3 3:7"/>
    </vehicle>
    <vehicle id="600" depart="420.00">
        <route edges="2:0 0:1 1:3 3:7"/>
    </vehicle>
    <vehicle id="603" depart="422.10">
        <route edges="3:1 1:0 0:2"/>
    </vehicle>
    <vehicle id="604" depart="422.80">
        <route edges="6:5 5:1 1:3 3:7"/>
    </vehicle>
    <vehicle id="606" depart="424.20">
        <route edges="5:1 1:3"/>
    </vehicle>
    <vehicle id="607" depart="424.90">
        <route edges="7:3 3:1 1:0 0:2"/>
    </vehicle>
    <vehicle id="614" depart="429.80">
        <route edges="2:0 0:1 1:3 3:7"/>
    </vehicle>
    <vehicle id="615" depart="430.50">
        <route edges="1:3 3:7"/>
    </vehicle>
    <vehicle id="618" depart="432.60">
        <route edges="7:3 3:1"/>
    </vehicle>
    <vehicle id="621" depart="434.70">
        <route edges="6:5 5:1 1:3"/>
    </vehicle>
    <vehicle id="622" depart="435.40">
        <route edges="1:3 3:7"/>
    </vehicle>
    <vehicle id="623" depart="436.10">
        <route edges="3:1"/>
    </vehicle>
    <vehicle id="626" depart="438.20">
        <route edges="0:1 1:5"/>
    </vehicle>
    <vehicle id="629" depart="440.30">
        <route edges="1:3"/>
    </vehicle>
    <vehicle id="631" depart="441.70">
        <route edges="3:1 1:0 0:2"/>
    </vehicle>
    <vehicle id="634" depart="443.80">
        <route edges="5:1 1:0 0:2"/>
    </vehicle>
    <vehicle id="635" depart="444.50">
        <route edges="1:0"/>
    </vehicle>
    <vehicle id="636" depart="445.20">
        <route edges="1:0"/>
    </vehicle>
    <vehicle id="637" depart="445.90">
        <route edges="1:3"/>
    </vehicle>
    <vehicle id="639" depart="447.30">
        <route edges="1:3 3:7"/>
    </vehicle>
    <vehicle id="640" depart="448.00">
        <route edges="0:1 1:5"/>
    </vehicle>
    <vehicle id="645" depart="451.50">
        <route edges="0:1 1:3"/>
    </vehicle>
    <vehicle id="648" depart="453.60">
        <route edges="2:0 0:1 1:5"/>
    </vehicle>
    <vehicle id="649" depart="454.30">
        <route edges="6:5 5:1 1:0 0:2"/>
    </vehicle>
    <vehicle id="650" depart="455.00">
        <route edges="6:5 5:1 1:0 0:2"/>
    </vehicle>
    <vehicle id="651" depart="455.70">
        <route edges="7:3 3:1 1:5 5:6"/>
    </vehicle>
    <vehicle id="652" depart="456.40">
        <route edges="2:0 0:1 1:3 3:7"/>
    </vehicle>
    <vehicle id="653" depart="457.10">
        <route edges="0:1 1:5 5:6"/>
    </vehicle>
    <vehicle id="657" depart="459.90">
        <route edges="7:3 3:1 1:0 0:2"/>
    </vehicle>
    <vehicle id="658" depart="460.60">
        <route edges="7:3 3:1 1:5"/>
    </vehicle>
    <vehicle id="660" depart="462.00">
        <route edges="6:5 5:1 1:3 3:7"/>
    </vehicle>
    <vehicle id="663" depart="464.10">