<?xml version="1.0" encoding="UTF-8"?>

<!-- generated on Thu Feb 13 12:39:33 2014 by SUMO duarouter Version 0.18.0
<?xml version="1.0" encoding="UTF-8"?>

<configuration xmlns:xsi="http://www.w3.org/2001/XMLSchema-instance" xsi:noNamespaceSchemaLocation="http://sumo.sf.net/xsd/duarouterConfiguration.xsd">

    <input>
        <net-file value="simpleT.net.xml"/>
        <trip-files value="experimentos/simpleT.p0.7.4.trips.xml"/>
    </input>

    <output>
        <output-file value="experimentos/simpleT.p0.7.4.rou.xml"/>
    </output>

    <processing>
        <ignore-errors value="true"/>
    </processing>

    <random_number>
        <random value="true"/>
    </random_number>

</configuration>
-->

<routes xmlns:xsi="http://www.w3.org/2001/XMLSchema-instance" xsi:noNamespaceSchemaLocation="http://sumo.sf.net/xsd/routes_file.xsd">
    <vehicle id="3" depart="2.10">
        <route edges="6:5 5:1 1:0"/>
    </vehicle>
    <vehicle id="8" depart="5.60">
        <route edges="5:1 1:0 0:2"/>
    </vehicle>
    <vehicle id="13" depart="9.10">
        <route edges="1:3 3:7"/>
    </vehicle>
    <vehicle id="14" depart="9.80">
        <route edges="7:3 3:1"/>
    </vehicle>
    <vehicle id="15" depart="10.50">
        <route edges="6:5 5:1 1:3 3:7"/>
    </vehicle>
    <vehicle id="17" depart="11.90">
        <route edges="1:3 3:7"/>
    </vehicle>
    <vehicle id="20" depart="14.00">
        <route edges="5:1 1:0"/>
    </vehicle>
    <vehicle id="23" depart="16.10">
        <route edges="1:3"/>
    </vehicle>
    <vehicle id="24" depart="16.80">
        <route edges="1:3 3:7"/>
    </vehicle>
    <vehicle id="28" depart="19.60">
        <route edges="3:1 1:0"/>
    </vehicle>
    <vehicle id="32" depart="22.40">
        <route edges="7:3 3:1 1:5 5:6"/>
    </vehicle>
    <vehicle id="35" depart="24.50">
        <route edges="0:1"/>
    </vehicle>
    <vehicle id="38" depart="26.60">
        <route edges="1:0 0:2"/>
    </vehicle>
    <vehicle id="39" depart="27.30">
        <route edges="3:1 1:0"/>
    </vehicle>
    <vehicle id="40" depart="28.00">
        <route edges="5:1 1:3 3:7"/>
    </vehicle>
    <vehicle id="45" depart="31.50">
        <route edges="7:3 3:1 1:0 0:2"/>
    </vehicle>
    <vehicle id="46" depart="32.20">
        <route edges="2:0 0:1 1:3"/>
    </vehicle>
    <vehicle id="49" depart="34.30">
        <route edges="6:5 5:1 1:0 0:2"/>
    </vehicle>
    <vehicle id="52" depart="36.40">
        <route edges="2:0 0:1"/>
    </vehicle>
    <vehicle id="56" depart="39.20">
        <route edges="2:0 0:1 1:3 3:7"/>
    </vehicle>
    <vehicle id="57" depart="39.90">
        <route edges="6:5 5:1 1:3 3:7"/>
    </vehicle>
    <vehicle id="58" depart="40.60">
        <route edges="0:1"/>
    </vehicle>
    <vehicle id="59" depart="41.30">
        <route edges="1:0 0:2"/>
    </vehicle>
    <vehicle id="63" depart="44.10">
        <route edges="7:3 3:1"/>
    </vehicle>
    <vehicle id="65" depart="45.50">
        <route edges="1:3 3:7"/>
    </vehicle>
    <vehicle id="66" depart="46.20">
        <route edges="1:0 0:2"/>
    </vehicle>
    <vehicle id="68" depart="47.60">
        <route edges="0:1 1:3"/>
    </vehicle>
    <vehicle id="69" depart="48.30">
        <route edges="7:3 3:1"/>
    </vehicle>
    <vehicle id="70" depart="49.00">
        <route edges="2:0 0:1 1:3 3:7"/>
    </vehicle>
    <vehicle id="72" depart="50.40">
        <route edges="6:5 5:1 1:0 0:2"/>
    </vehicle>
    <vehicle id="75" depart="52.50">
        <route edges="2:0 0:1 1:3"/>
    </vehicle>
    <vehicle id="80" depart="56.00">
        <route edges="6:5 5:1 1:0 0:2"/>
    </vehicle>
    <vehicle id="81" depart="56.70">
        <route edges="1:0"/>
    </vehicle>
    <vehicle id="82" depart="57.40">
        <route edges="2:0 0:1 1:3 3:7"/>
    </vehicle>
    <vehicle id="84" depart="58.80">
        <route edges="6:5 5:1 1:0 0:2"/>
    </vehicle>
    <vehicle id="87" depart="60.90">
        <route edges="0:1 1:3 3:7"/>
    </vehicle>
    <vehicle id="88" depart="61.60">
        <route edges="7:3 3:1 1:5 5:6"/>
    </vehicle>
    <vehicle id="90" depart="63.00">
        <route edges="6:5 5:1 1:0 0:2"/>
    </vehicle>
    <vehicle id="91" depart="63.70">
        <route edges="7:3 3:1 1:5 5:6"/>
    </vehicle>
    <vehicle id="94" depart="65.80">
        <route edges="1:0 0:2"/>
    </vehicle>
    <vehicle id="96" depart="67.20">
        <route edges="1:3"/>
    </vehicle>
    <vehicle id="97" depart="67.90">
        <route edges="2:0 0:1 1:5 5:6"/>
    </vehicle>
    <vehicle id="98" depart="68.60">
        <route edges="2:0 0:1 1:3 3:7"/>
    </vehicle>
    <vehicle id="103" depart="72.10">
        <route edges="1:3 3:7"/>
    </vehicle>
    <vehicle id="106" depart="74.20">
        <route edges="7:3 3:1 1:0 0:2"/>
    </vehicle>
    <vehicle id="108" depart="75.60">
        <route edges="3:1 1:0"/>
    </vehicle>
    <vehicle id="109" depart="76.30">
        <route edges="1:3 3:7"/>
    </vehicle>
    <vehicle id="112" depart="78.40">
        <route edges="1:3 3:7"/>
    </vehicle>
    <vehicle id="119" depart="83.30">
        <route edges="0:1 1:3 3:7"/>
    </vehicle>
    <vehicle id="120" depart="84.00">
        <route edges="7:3 3:1 1:0 0:2"/>
    </vehicle>
    <vehicle id="121" depart="84.70">
        <route edges="2:0 0:1 1:3 3:7"/>
    </vehicle>
    <vehicle id="128" depart="89.60">
        <route edges="2:0 0:1 1:3 3:7"/>
    </vehicle>
    <vehicle id="130" depart="91.00">
        <route edges="0:1 1:3"/>
    </vehicle>
    <vehicle id="132" depart="92.40">
        <route edges="2:0 0:1 1:5 5:6"/>
    </vehicle>
    <vehicle id="134" depart="93.80">
        <route edges="6:5 5:1 1:0 0:2"/>
    </vehicle>
    <vehicle id="138" depart="96.60">
        <route edges="7:3 3:1 1:0 0:2"/>
    </vehicle>
    <vehicle id="139" depart="97.30">
        <route edges="2:0 0:1 1:3"/>
    </vehicle>
    <vehicle id="142" depart="99.40">
        <route edges="1:0"/>
    </vehicle>
    <vehicle id="144" depart="100.80">
        <route edges="6:5 5:1 1:0 0:2"/>
    </vehicle>
    <vehicle id="148" depart="103.60">
        <route edges="0:1 1:3 3:7"/>
    </vehicle>
    <vehicle id="149" depart="104.30">
        <route edges="1:3 3:7"/>
    </vehicle>
    <vehicle id="150" depart="105.00">
        <route edges="7:3 3:1 1:5 5:6"/>
    </vehicle>
    <vehicle id="151" depart="105.70">
        <route edges="5:1 1:3 3:7"/>
    </vehicle>
    <vehicle id="152" depart="106.40">
        <route edges="2:0 0:1 1:5"/>
    </vehicle>
    <vehicle id="153" depart="107.10">
        <route edges="1:3 3:7"/>
    </vehicle>
    <vehicle id="158" depart="110.60">
        <route edges="3:1 1:5 5:6"/>
    </vehicle>
    <vehicle id="161" depart="112.70">
        <route edges="3:1 1:0 0:2"/>
    </vehicle>
    <vehicle id="164" depart="114.80">
        <route edges="6:5 5:1 1:0"/>
    </vehicle>
    <vehicle id="168" depart="117.60">
        <route edges="2:0 0:1"/>
    </vehicle>
    <vehicle id="171" depart="119.70">
        <route edges="5:1 1:0 0:2"/>
    </vehicle>
    <vehicle id="177" depart="123.90">
        <route edges="5:1 1:3 3:7"/>
    </vehicle>
    <vehicle id="178" depart="124.60">
        <route edges="1:0 0:2"/>
    </vehicle>
    <vehicle id="179" depart="125.30">
        <route edges="0:1 1:3 3:7"/>
    </vehicle>
    <vehicle id="183" depart="128.10">
        <route edges="6:5 5:1"/>
    </vehicle>
    <vehicle id="184" depart="128.80">
        <route edges="1:0"/>
    </vehicle>
    <vehicle id="185" depart="129.50">
        <route edges="5:1 1:0 0:2"/>
    </vehicle>
    <vehicle id="187" depart="130.90">
        <route edges="5:1"/>
    </vehicle>
    <vehicle id="189" depart="132.30">
        <route edges="2:0 0:1 1:5"/>
    </vehicle>
    <vehicle id="190" depart="133.00">
        <route edges="2:0 0:1"/>
    </vehicle>
    <vehicle id="192" depart="134.40">
        <route edges="5:1 1:0 0:2"/>
    </vehicle>
    <vehicle id="193" depart="135.10">
        <route edges="6:5 5:1 1:0"/>
    </vehicle>
    <vehicle id="194" depart="135.80">
        <route edges="1:3 3:7"/>
    </vehicle>
    <vehicle id="195" depart="136.50">
        <route edges="6:5 5:1 1:0"/>
    </vehicle>
    <vehicle id="196" depart="137.20">
        <route edges="3:1 1:5"/>
    </vehicle>
    <vehicle id="197" depart="137.90">
        <route edges="2:0 0:1"/>
    </vehicle>
    <vehicle id="198" depart="138.60">
        <route edges="3:1 1:0"/>
    </vehicle>
    <vehicle id="203" depart="142.10">
        <route edges="7:3 3:1 1:5 5:6"/>
    </vehicle>
    <vehicle id="209" depart="146.30">
        <route edges="6:5 5:1 1:3 3:7"/>
    </vehicle>
    <vehicle id="210" depart="147.00">
        <route edges="1:0"/>
    </vehicle>
    <vehicle id="212" depart="148.40">
        <route edges="1:3 3:7"/>
    </vehicle>
    <vehicle id="217" depart="151.90">
        <route edges="2:0 0:1 1:3 3:7"/>
    </vehicle>
    <vehicle id="219" depart="153.30">
        <route edges="5:1"/>
    </vehicle>
    <vehicle id="220" depart="154.00">
        <route edges="5:1 1:3 3:7"/>
    </vehicle>
    <vehicle id="221" depart="154.70">
        <route edges="3:1 1:0"/>
    </vehicle>
    <vehicle id="224" depart="156.80">
        <route edges="3:1 1:0"/>
    </vehicle>
    <vehicle id="228" depart="159.60">
        <route edges="2:0 0:1 1:3"/>
    </vehicle>
    <vehicle id="229" depart="160.30">
        <route edges="7:3 3:1 1:0 0:2"/>
    </vehicle>
    <vehicle id="230" depart="161.00">
        <route edges="1:3"/>
    </vehicle>
    <vehicle id="231" depart="161.70">
        <route edges="2:0 0:1 1:3 3:7"/>
    </vehicle>
    <vehicle id="232" depart="162.40">
        <route edges="6:5 5:1 1:0"/>
    </vehicle>
    <vehicle id="233" depart="163.10">
        <route edges="7:3 3:1 1:5"/>
    </vehicle>
    <vehicle id="234" depart="163.80">
        <route edges="3:1 1:0 0:2"/>
    </vehicle>
    <vehicle id="235" depart="164.50">
        <route edges="7:3 3:1 1:0 0:2"/>
    </vehicle>
    <vehicle id="236" depart="165.20">
        <route edges="7:3 3:1 1:5"/>
    </vehicle>
    <vehicle id="238" depart="166.60">
        <route edges="2:0 0:1"/>
    </vehicle>
    <vehicle id="239" depart="167.30">
        <route edges="2:0 0:1 1:3"/>
    </vehicle>
    <vehicle id="240" depart="168.00">
        <route edges="7:3 3:1 1:5 5:6"/>
    </vehicle>
    <vehicle id="243" depart="170.10">
        <route edges="6:5 5:1 1:3 3:7"/>
    </vehicle>
    <vehicle id="245" depart="171.50">
        <route edges="2:0 0:1 1:5 5:6"/>
    </vehicle>
    <vehicle id="249" depart="174.30">
        <route edges="2:0 0:1 1:3 3:7"/>
    </vehicle>
    <vehicle id="254" depart="177.80">
        <route edges="7:3 3:1 1:0"/>
    </vehicle>
    <vehicle id="255" depart="178.50">
        <route edges="2:0 0:1 1:3 3:7"/>
    </vehicle>
    <vehicle id="259" depart="181.30">
        <route edges="7:3 3:1 1:0 0:2"/>
    </vehicle>
    <vehicle id="263" depart="184.10">
        <route edges="1:3 3:7"/>
    </vehicle>
    <vehicle id="264" depart="184.80">
        <route edges="3:1 1:0"/>
    </vehicle>
    <vehicle id="268" depart="187.60">
        <route edges="5:1 1:0 0:2"/>
    </vehicle>
    <vehicle id="269" depart="188.30">
        <route edges="2:0 0:1 1:3"/>
    </vehicle>
    <vehicle id="270" depart="189.00">
        <route edges="2:0 0:1 1:3 3:7"/>
    </vehicle>
    <vehicle id="272" depart="190.40">
        <route edges="2:0 0:1 1:3 3:7"/>
    </vehicle>
    <vehicle id="275" depart="192.50">
        <route edges="3:1 1:5 5:6"/>
    </vehicle>
    <vehicle id="276" depart="193.20">
        <route edges="3:1 1:0"/>
    </vehicle>
    <vehicle id="280" depart="196.00">
        <route edges="3:1 1:0 0:2"/>
    </vehicle>
    <vehicle id="282" depart="197.40">
        <route edges="3:1 1:5 5:6"/>
    </vehicle>
    <vehicle id="283" depart="198.10">
        <route edges="2:0 0:1 1:3 3:7"/>
    </vehicle>
    <vehicle id="284" depart="198.80">
        <route edges="7:3 3:1 1:0"/>
    </vehicle>
    <vehicle id="286" depart="200.20">
        <route edges="7:3 3:1 1:5"/>
    </vehicle>
    <vehicle id="287" depart="200.90">
        <route edges="7:3 3:1"/>
    </vehicle>
    <vehicle id="288" depart="201.60">
        <route edges="1:0"/>
    </vehicle>
    <vehicle id="289" depart="202.30">
        <route edges="3:1 1:5"/>
    </vehicle>
    <vehicle id="292" depart="204.40">
        <route edges="1:5 5:6"/>
    </vehicle>
    <vehicle id="294" depart="205.80">
        <route edges="7:3 3:1 1:0"/>
    </vehicle>
    <vehicle id="295" depart="206.50">
        <route edges="1:3 3:7"/>
    </vehicle>
    <vehicle id="296" depart="207.20">
        <route edges="5:1 1:0 0:2"/>
    </vehicle>
    <vehicle id="297" depart="207.90">
        <route edges="1:5 5:6"/>
    </vehicle>
    <vehicle id="299" depart="209.30">
        <route edges="2:0 0:1 1:3 3:7"/>
    </vehicle>
    <vehicle id="300" depart="210.00">
        <route edges="0:1 1:3"/>
    </vehicle>
    <vehicle id="301" depart="210.70">
        <route edges="2:0 0:1 1:3"/>
    </vehicle>
    <vehicle id="305" depart="213.50">
        <route edges="2:0 0:1 1:5"/>
    </vehicle>
    <vehicle id="306" depart="214.20">
        <route edges="5:1 1:3 3:7"/>
    </vehicle>
    <vehicle id="307" depart="214.90">
        <route edges="3:1 1:0 0:2"/>
    </vehicle>
    <vehicle id="308" depart="215.60">
        <route edges="7:3 3:1 1:5"/>
    </vehicle>
    <vehicle id="311" depart="217.70">
        <route edges="2:0 0:1 1:3 3:7"/>
    </vehicle>
    <vehicle id="312" depart="218.40">
        <route edges="7:3 3:1"/>
    </vehicle>
    <vehicle id="313" depart="219.10">
        <route edges="7:3 3:1 1:5 5:6"/>
    </vehicle>
    <vehicle id="314" depart="219.80">
        <route edges="2:0 0:1 1:3"/>
    </vehicle>
    <vehicle id="317" depart="221.90">
        <route edges="1:0 0:2"/>
    </vehicle>
    <vehicle id="318" depart="222.60">
        <route edges="6:5 5:1 1:3 3:7"/>
    </vehicle>
    <vehicle id="322" depart="225.40">
        <route edges="7:3 3:1 1:0 0:2"/>
    </vehicle>
    <vehicle id="323" depart="226.10">
        <route edges="1:3 3:7"/>
    </vehicle>
    <vehicle id="324" depart="226.80">
        <route edges="2:0 0:1 1:3 3:7"/>
    </vehicle>
    <vehicle id="328" depart="229.60">
        <route edges="7:3 3:1 1:0"/>
    </vehicle>
    <vehicle id="329" depart="230.30">
        <route edges="2:0 0:1 1:3 3:7"/>
    </vehicle>
    <vehicle id="335" depart="234.50">
        <route edges="0:1 1:5 5:6"/>
    </vehicle>
    <vehicle id="336" depart="235.20">
        <route edges="6:5 5:1 1:3"/>
    </vehicle>
    <vehicle id="338" depart="236.60">
        <route edges="7:3 3:1 1:5"/>
    </vehicle>
    <vehicle id="342" depart="239.40">
        <route edges="7:3 3:1 1:0 0:2"/>
    </vehicle>
    <vehicle id="344" depart="240.80">
        <route edges="3:1 1:5"/>
    </vehicle>
    <vehicle id="350" depart="245.00">
        <route edges="2:0 0:1 1:5 5:6"/>
    </vehicle>
    <vehicle id="352" depart="246.40">
        <route edges="1:0"/>
    </vehicle>
    <vehicle id="355" depart="248.50">
        <route edges="7:3 3:1 1:0 0:2"/>
    </vehicle>
    <vehicle id="356" depart="249.20">
        <route edges="1:0 0:2"/>
    </vehicle>
    <vehicle id="357" depart="249.90">
        <route edges="3:1 1:0 0:2"/>
    </vehicle>
    <vehicle id="358" depart="250.60">
        <route edges="3:1"/>
    </vehicle>
    <vehicle id="361" depart="252.70">
        <route edges="3:1 1:0 0:2"/>
    </vehicle>
    <vehicle id="363" depart="254.10">
        <route edges="3:1 1:0 0:2"/>
    </vehicle>
    <vehicle id="364" depart="254.80">
        <route edges="5:1 1:0"/>
    </vehicle>
    <vehicle id="366" depart="256.20">
        <route edges="3:1 1:5"/>
    </vehicle>
    <vehicle id="367" depart="256.90">
        <route edges="2:0 0:1 1:3"/>
    </vehicle>
    <vehicle id="368" depart="257.60">
        <route edges="1:0 0:2"/>
    </vehicle>
    <vehicle id="371" depart="259.70">
        <route edges="6:5 5:1 1:3 3:7"/>
    </vehicle>
    <vehicle id="372" depart="260.40">
        <route edges="2:0 0:1"/>
    </vehicle>
    <vehicle id="375" depart="262.50">
        <route edges="2:0 0:1 1:3 3:7"/>
    </vehicle>
    <vehicle id="377" depart="263.90">
        <route edges="6:5 5:1 1:3 3:7"/>
    </vehicle>
    <vehicle id="381" depart="266.70">
        <route edges="3:1 1:5 5:6"/>
    </vehicle>
    <vehicle id="385" depart="269.50">
        <route edges="2:0 0:1 1:5"/>
    </vehicle>
    <vehicle id="388" depart="271.60">
        <route edges="0:1 1:5 5:6"/>
    </vehicle>
    <vehicle id="389" depart="272.30">
        <route edges="2:0 0:1 1:3 3:7"/>
    </vehicle>
    <vehicle id="390" depart="273.00">
        <route edges="7:3 3:1 1:5"/>
    </vehicle>
    <vehicle id="392" depart="274.40">
        <route edges="7:3 3:1 1:0 0:2"/>
    </vehicle>
    <vehicle id="395" depart="276.50">
        <route edges="7:3 3:1 1:0 0:2"/>
    </vehicle>
    <vehicle id="396" depart="277.20">
        <route edges="7:3 3:1 1:0 0:2"/>
    </vehicle>
    <vehicle id="397" depart="277.90">
        <route edges="1:0"/>
    </vehicle>
    <vehicle id="399" depart="279.30">
        <route edges="6:5 5:1 1:0"/>
    </vehicle>
    <vehicle id="401" depart="280.70">
        <route edges="2:0 0:1"/>
    </vehicle>
    <vehicle id="402" depart="281.40">
        <route edges="6:5 5:1 1:0"/>
    </vehicle>
    <vehicle id="406" depart="284.20">
        <route edges="0:1 1:5 5:6"/>
    </vehicle>
    <vehicle id="407" depart="284.90">
        <route edges="7:3 3:1"/>
    </vehicle>
    <vehicle id="408" depart="285.60">
        <route edges="6:5 5:1 1:3 3:7"/>
    </vehicle>
    <vehicle id="410" depart="287.00">
        <route edges="5:1 1:0 0:2"/>
    </vehicle>
    <vehicle id="411" depart="287.70">
        <route edges="5:1 1:0 0:2"/>
    </vehicle>
    <vehicle id="413" depart="289.10">
        <route edges="7:3 3:1"/>
    </vehicle>
    <vehicle id="414" depart="289.80">
        <route edges="6:5 5:1 1:0 0:2"/>
    </vehicle>
    <vehicle id="415" depart="290.50">
        <route edges="7:3 3:1 1:5 5:6"/>
    </vehicle>
    <vehicle id="416" depart="291.20">
        <route edges="7:3 3:1 1:0"/>
    </vehicle>
    <vehicle id="418" depart="292.60">
        <route edges="0:1 1:5 5:6"/>
    </vehicle>
    <vehicle id="419" depart="293.30">
        <route edges="3:1 1:5 5:6"/>
    </vehicle>
    <vehicle id="420" depart="294.00">
        <route edges="2:0 0:1"/>
    </vehicle>
    <vehicle id="422" depart="295.40">
        <route edges="2:0 0:1 1:5 5:6"/>
    </vehicle>
    <vehicle id="423" depart="296.10">
        <route edges="2:0 0:1 1:3 3:7"/>
    </vehicle>
    <vehicle id="426" depart="298.20">
        <route edges="2:0 0:1 1:3 3:7"/>
    </vehicle>
    <vehicle id="429" depart="300.30">
        <route edges="2:0 0:1 1:3 3:7"/>
    </vehicle>
    <vehicle id="430" depart="301.00">
        <route edges="7:3 3:1 1:0"/>
    </vehicle>
    <vehicle id="433" depart="303.10">
        <route edges="7:3 3:1 1:0 0:2"/>
    </vehicle>
    <vehicle id="436" depart="305.20">
        <route edges="3:1 1:5 5:6"/>
    </vehicle>
    <vehicle id="438" depart="306.60">
        <route edges="6:5 5:1 1:3 3:7"/>
    </vehicle>
    <vehicle id="439" depart="307.30">
        <route edges="3:1"/>
    </vehicle>
    <vehicle id="443" depart="310.10">
        <route edges="2:0 0:1 1:5"/>
    </vehicle>
    <vehicle id="444" depart="310.80">
        <route edges="3:1"/>
    </vehicle>
    <vehicle id="445" depart="311.50">
        <route edges="7:3 3:1 1:5"/>
    </vehicle>
    <vehicle id="446" depart="312.20">
        <route edges="7:3 3:1"/>
    </vehicle>
    <vehicle id="450" depart="315.00">
        <route edges="2:0 0:1"/>
    </vehicle>
    <vehicle id="454" depart="317.80">
        <route edges="3:1 1:0"/>
    </vehicle>
    <vehicle id="459" depart="321.30">
        <route edges="5:1 1:3"/>
    </vehicle>
    <vehicle id="464" depart="324.80">
        <route edges="2:0 0:1 1:3 3:7"/>
    </vehicle>
    <vehicle id="466" depart="326.20">
        <route edges="2:0 0:1 1:3 3:7"/>
    </vehicle>
    <vehicle id="467" depart="326.90">
        <route edges="6:5 5:1"/>
    </vehicle>
    <vehicle id="468" depart="327.60">
        <route edges="7:3 3:1 1:0"/>
    </vehicle>
    <vehicle id="469" depart="328.30">
        <route edges="7:3 3:1 1:0"/>
    </vehicle>
    <vehicle id="472" depart="330.40">
        <route edges="2:0 0:1 1:3 3:7"/>
    </vehicle>
    <vehicle id="475" depart="332.50">
        <route edges="7:3 3:1 1:0 0:2"/>
    </vehicle>
    <vehicle id="476" depart="333.20">
        <route edges="6:5 5:1 1:0 0:2"/>
    </vehicle>
    <vehicle id="477" depart="333.90">
        <route edges="2:0 0:1 1:3 3:7"/>
    </vehicle>
    <vehicle id="478" depart="334.60">
        <route edges="3:1 1:0"/>
    </vehicle>
    <vehicle id="479" depart="335.30">
        <route edges="2:0 0:1"/>
    </vehicle>
    <vehicle id="480" depart="336.00">
        <route edges="3:1 1:0 0:2"/>
    </vehicle>
    <vehicle id="481" depart="336.70">
        <route edges="7:3 3:1 1:0 0:2"/>
    </vehicle>
    <vehicle id="484" depart="338.80">
        <route edges="7:3 3:1 1:0 0:2"/>
    </vehicle>
    <vehicle id="485" depart="339.50">
        <route edges="1:3"/>
    </vehicle>
    <vehicle id="486" depart="340.20">
        <route edges="2:0 0:1 1:3 3:7"/>
    </vehicle>
    <vehicle id="489" depart="342.30">
        <route edges="2:0 0:1"/>
    </vehicle>
    <vehicle id="492" depart="344.40">
        <route edges="2:0 0:1 1:3 3:7"/>
    </vehicle>
    <vehicle id="495" depart="346.50">
        <route edges="5:1"/>
    </vehicle>
    <vehicle id="496" depart="347.20">
        <route edges="6:5 5:1 1:3 3:7"/>
    </vehicle>
    <vehicle id="497" depart="347.90">
        <route edges="6:5 5:1 1:0"/>
    </vehicle>
    <vehicle id="501" depart="350.70">
        <route edges="2:0 0:1 1:3 3:7"/>
    </vehicle>
    <vehicle id="503" depart="352.10">
        <route edges="2:0 0:1 1:3 3:7"/>
    </vehicle>
    <vehicle id="506" depart="354.20">
        <route edges="7:3 3:1"/>
    </vehicle>
    <vehicle id="510" depart="357.00">
        <route edges="7:3 3:1"/>
    </vehicle>
    <vehicle id="512" depart="358.40">
        <route edges="0:1 1:3"/>
    </vehicle>
    <vehicle id="514" depart="359.80">
        <route edges="2:0 0:1 1:5 5:6"/>
    </vehicle>
    <vehicle id="515" depart="360.50">
        <route edges="2:0 0:1 1:5"/>
    </vehicle>
    <vehicle id="516" depart="361.20">
        <route edges="6:5 5:1 1:0"/>
    </vehicle>
    <vehicle id="517" depart="361.90">
        <route edges="7:3 3:1 1:5 5:6"/>
    </vehicle>
    <vehicle id="518" depart="362.60">
        <route edges="7:3 3:1 1:0 0:2"/>
    </vehicle>
    <vehicle id="519" depart="363.30">
        <route edges="0:1"/>
    </vehicle>
    <vehicle id="520" depart="364.00">
        <route edges="2:0 0:1 1:3"/>
    </vehicle>
    <vehicle id="521" depart="364.70">
        <route edges="2:0 0:1 1:3 3:7"/>
    </vehicle>
    <vehicle id="524" depart="366.80">
        <route edges="0:1 1:3"/>
    </vehicle>
    <vehicle id="525" depart="367.50">
        <route edges="0:1 1:3"/>
    </vehicle>
    <vehicle id="529" depart="370.30">
        <route edges="7:3 3:1 1:0 0:2"/>
    </vehicle>
    <vehicle id="535" depart="374.50">
        <route edges="0:1 1:3"/>
    </vehicle>
    <vehicle id="543" depart="380.10">
        <route edges="5:1 1:3 3:7"/>
    </vehicle>
    <vehicle id="544" depart="380.80">
        <route edges="6:5 5:1 1:0 0:2"/>
    </vehicle>
    <vehicle id="546" depart="382.20">
        <route edges="0:1 1:3 3:7"/>
    </vehicle>
    <vehicle id="547" depart="382.90">
        <route edges="0:1 1:5 5:6"/>
    </vehicle>
    <vehicle id="548" depart="383.60">
        <route edges="1:0"/>
    </vehicle>
    <vehicle id="550" depart="385.00">
        <route edges="1:0 0:2"/>
    </vehicle>
    <vehicle id="551" depart="385.70">
        <route edges="2:0 0:1 1:5 5:6"/>
    </vehicle>
    <vehicle id="552" depart="386.40">
        <route edges="2:0 0:1 1:3 3:7"/>
    </vehicle>
    <vehicle id="553" depart="387.10">
        <route edges="7:3 3:1 1:5 5:6"/>
    </vehicle>
    <vehicle id="555" depart="388.50">
        <route edges="6:5 5:1 1:3 3:7"/>
    </vehicle>
    <vehicle id="559" depart="391.30">
        <route edges="7:3 3:1 1:0 0:2"/>
    </vehicle>
    <vehicle id="561" depart="392.70">
        <route edges="1:0"/>
    </vehicle>
    <vehicle id="563" depart="394.10">
        <route edges="0:1 1:5 5:6"/>
    </vehicle>
    <vehicle id="565" depart="395.50">
        <route edges="0:1 1:3 3:7"/>
    </vehicle>
    <vehicle id="566" depart="396.20">
        <route edges="3:1 1:0 0:2"/>
    </vehicle>
    <vehicle id="567" depart="396.90">
        <route edges="0:1 1:3"/>
    </vehicle>
    <vehicle id="569" depart="398.30">
        <route edges="6:5 5:1 1:3 3:7"/>
    </vehicle>
    <vehicle id="573" depart="401.10">
        <route edges="6:5 5:1 1:0 0:2"/>
    </vehicle>
    <vehicle id="574" depart="401.80">
        <route edges="2:0 0:1 1:3"/>
    </vehicle>
    <vehicle id="580" depart="406.00">
        <route edges="2:0 0:1 1:3"/>
    </vehicle>
    <vehicle id="581" depart="406.70">
        <route edges="1:3 3:7"/>
    </vehicle>
    <vehicle id="583" depart="408.10">
        <route edges="5:1"/>
    </vehicle>
    <vehicle id="586" depart="410.20">
        <route edges="2:0 0:1 1:3 3:7"/>
    </vehicle>
    <vehicle id="588" depart="411.60">
        <route edges="6:5 5:1 1:3 3:7"/>
    </vehicle>
    <vehicle id="591" depart="413.70">
        <route edges="7:3 3:1 1:0 0:2"/>
    </vehicle>
    <vehicle id="593" depart="415.10">
        <route edges="2:0 0:1 1:3 3:7"/>
    </vehicle>
    <vehicle id="594" depart="415.80">
        <route edges="0:1 1:5 5:6"/>
    </vehicle>
    <vehicle id="597" depart="417.90">
        <route edges="6:5 5:1 1:0"/>
    </vehicle>
    <vehicle id="601" depart="420.70">
        <route edges="7:3 3:1"/>
    </vehicle>
    <vehicle id="602" depart="421.40">
        <route edges="0:1 1:3 3:7"/>
    </vehicle>
    <vehicle id="603" depart="422.10">
        <route edges="2:0 0:1 1:3 3:7"/>
    </vehicle>
    <vehicle id="604" depart="422.80">
        <route edges="7:3 3:1 1:0 0:2"/>
    </vehicle>
    <vehicle id="605" depart="423.50">
        <route edges="7:3 3:1 1:0 0:2"/>
    </vehicle>
    <vehicle id="609" depart="426.30">
        <route edges="7:3 3:1 1:0 0:2"/>
    </vehicle>
    <vehicle id="610" depart="427.00">
        <route edges="6:5 5:1 1:3 3:7"/>
    </vehicle>
    <vehicle id="611" depart="427.70">
        <route edges="7:3 3:1 1:0"/>
    </vehicle>
    <vehicle id="613" depart="429.10">
        <route edges="2:0 0:1 1:3"/>
    </vehicle>
    <vehicle id="614" depart="429.80">
        <route edges="2:0 0:1 1:3 3:7"/>
    </vehicle>
    <vehicle id="615" depart="430.50">
        <route edges="0:1 1:5"/>
    </vehicle>
    <vehicle id="616" depart="431.20">
        <route edges="5:1 1:3 3:7"/>
    </vehicle>
    <vehicle id="617" depart="431.90">
        <route edges="6:5 5:1 1:3 3:7"/>
    </vehicle>
    <vehicle id="619" depart="433.30">
        <route edges="5:1 1:3 3:7"/>
    </vehicle>
    <vehicle id="624" depart="436.80">
        <route edges="6:5 5:1 1:0 0:2"/>
    </vehicle>
    <vehicle id="625" depart="437.50">
        <route edges="6:5 5:1 1:3 3:7"/>
    </vehicle>
    <vehicle id="628" depart="439.60">
        <route edges="1:0"/>
    </vehicle>
    <vehicle id="629" depart="440.30">
        <route edges="7:3 3:1 1:5 5:6"/>
    </vehicle>
    <vehicle id="630" depart="441.00">
        <route edges="1:0 0:2"/>
    </vehicle>
    <vehicle id="631" depart="441.70">
        <route edges="2:0 0:1 1:3 3:7"/>
    </vehicle>
    <vehicle id="632" depart="442.40">
        <route edges="5:1 1:0 0:2"/>
    </vehicle>
    <vehicle id="633" depart="443.10">
        <route edges="0:1 1:3 3:7"/>
    </vehicle>
    <vehicle id="636" depart="445.20">
        <route edges="7:3 3:1 1:0"/>
    </vehicle>
    <vehicle id="644" depart="450.80">
        <route edges="5:1 1:3 3:7"/>
    </vehicle>
    <vehicle id="649" depart="454.30">
        <route edges="1:3 3:7"/>
    </vehicle>
    <vehicle id="653" depart="457.10">
        <route edges="1:3"/>
    </vehicle>
    <vehicle id="655" depart="458.50">
        <route edges="3:1"/>
    </vehicle>
    <vehicle id="657" depart="459.90">
        <route edges="3:1 1:0 0:2"/>
    </vehicle>
    <vehicle id="660" depart="462.00">
        <route edges="1:0"/>
    </vehicle>
    <vehicle id="662" depart="463.40">
        <route edges="1:3"/>
    </vehicle>
    <vehicle id="664" depart="464.80">
        <route edges="2:0 0:1 1:3 3:7"/>
    </vehicle>
    <vehicle id="665" depart="465.50">
        <route edges="2:0 0:1 1:5 5:6"/>
    </vehicle>
    <vehicle id="668" depart="467.60">
        <route edges="2:0 0:1 1:3"/>
    </vehicle>
    <vehicle id="669" depart="468.30">
        <route edges="1:3"/>
    </vehicle>
    <vehicle id="670" depart="469.00">
        <route edges="5:1 1:0"/>
    </vehicle>
    <vehicle id="671" depart="469.70">
        <route edges="3:1 1:5"/>
    </vehicle>
    <vehicle id="672" depart="470.40">
        <route edges="0:1 1:5 5:6"/>
    </vehicle>
    <vehicle id="674" depart="471.80">
        <route edges="1:5 5:6"/>
    </vehicle>
    <vehicle id="675" depart="472.50">
        <route edges="2:0 0:1 1:3 3:7"/>
    </vehicle>
    <vehicle id="676" depart="473.20">
        <route edges="0:1 1:3 3:7"/>
    </vehicle>
    <vehicle id="677" depart="473.90">
        <route edges="2:0 0:1"/>
    </vehicle>
    <vehicle id="679" depart="475.30">
        <route edges="6:5 5:1 1:0 0:2"/>
    </vehicle>
    <vehicle id="680" depart="476.00">
        <route edges="6:5 5:1 1:0"/>
    </vehicle>
    <vehicle id="681" depart="476.70">