<?xml version="1.0" encoding="UTF-8"?>

<!-- generated on Thu Feb 13 12:39:08 2014 by SUMO duarouter Version 0.18.0
<?xml version="1.0" encoding="UTF-8"?>

<configuration xmlns:xsi="http://www.w3.org/2001/XMLSchema-instance" xsi:noNamespaceSchemaLocation="http://sumo.sf.net/xsd/duarouterConfiguration.xsd">

    <input>
        <net-file value="simpleT.net.xml"/>
        <trip-files value="experimentos/simpleT.p0.4.5.trips.xml"/>
    </input>

    <output>
        <output-file value="experimentos/simpleT.p0.4.5.rou.xml"/>
    </output>

    <processing>
        <ignore-errors value="true"/>
    </processing>

    <random_number>
        <random value="true"/>
    </random_number>

</configuration>
-->

<routes xmlns:xsi="http://www.w3.org/2001/XMLSchema-instance" xsi:noNamespaceSchemaLocation="http://sumo.sf.net/xsd/routes_file.xsd">
    <vehicle id="1" depart="0.40">
        <route edges="1:0 0:2"/>
    </vehicle>
    <vehicle id="3" depart="1.20">
        <route edges="0:1"/>
    </vehicle>
    <vehicle id="5" depart="2.00">
        <route edges="7:3 3:1 1:0 0:2"/>
    </vehicle>
    <vehicle id="7" depart="2.80">
        <route edges="3:1 1:0"/>
    </vehicle>
    <vehicle id="8" depart="3.20">
        <route edges="7:3 3:1 1:5 5:6"/>
    </vehicle>
    <vehicle id="9" depart="3.60">
        <route edges="3:1 1:0 0:2"/>
    </vehicle>
    <vehicle id="11" depart="4.40">
        <route edges="1:3 3:7"/>
    </vehicle>
    <vehicle id="17" depart="6.80">
        <route edges="1:5"/>
    </vehicle>
    <vehicle id="19" depart="7.60">
        <route edges="1:3 3:7"/>
    </vehicle>
    <vehicle id="20" depart="8.00">
        <route edges="6:5 5:1 1:0"/>
    </vehicle>
    <vehicle id="21" depart="8.40">
        <route edges="5:1 1:0 0:2"/>
    </vehicle>
    <vehicle id="23" depart="9.20">
        <route edges="7:3 3:1"/>
    </vehicle>
    <vehicle id="24" depart="9.60">
        <route edges="2:0 0:1 1:3"/>
    </vehicle>
    <vehicle id="28" depart="11.20">
        <route edges="2:0 0:1 1:3 3:7"/>
    </vehicle>
    <vehicle id="29" depart="11.60">
        <route edges="1:0"/>
    </vehicle>
    <vehicle id="31" depart="12.40">
        <route edges="1:5"/>
    </vehicle>
    <vehicle id="32" depart="12.80">
        <route edges="7:3 3:1 1:0 0:2"/>
    </vehicle>
    <vehicle id="33" depart="13.20">
        <route edges="5:1 1:3 3:7"/>
    </vehicle>
    <vehicle id="34" depart="13.60">
        <route edges="1:3 3:7"/>
    </vehicle>
    <vehicle id="38" depart="15.20">
        <route edges="2:0 0:1"/>
    </vehicle>
    <vehicle id="39" depart="15.60">
        <route edges="6:5 5:1 1:0 0:2"/>
    </vehicle>
    <vehicle id="41" depart="16.40">
        <route edges="5:1 1:0"/>
    </vehicle>
    <vehicle id="44" depart="17.60">
        <route edges="5:1 1:3 3:7"/>
    </vehicle>
    <vehicle id="45" depart="18.00">
        <route edges="0:1 1:5 5:6"/>
    </vehicle>
    <vehicle id="49" depart="19.60">
        <route edges="7:3 3:1 1:0 0:2"/>
    </vehicle>
    <vehicle id="53" depart="21.20">
        <route edges="1:5 5:6"/>
    </vehicle>
    <vehicle id="59" depart="23.60">
        <route edges="6:5 5:1"/>
    </vehicle>
    <vehicle id="65" depart="26.00">
        <route edges="6:5 5:1 1:0 0:2"/>
    </vehicle>
    <vehicle id="66" depart="26.40">
        <route edges="3:1 1:0 0:2"/>
    </vehicle>
    <vehicle id="67" depart="26.80">
        <route edges="2:0 0:1 1:3 3:7"/>
    </vehicle>
    <vehicle id="68" depart="27.20">
        <route edges="7:3 3:1 1:0 0:2"/>
    </vehicle>
    <vehicle id="69" depart="27.60">
        <route edges="3:1 1:0 0:2"/>
    </vehicle>
    <vehicle id="70" depart="28.00">
        <route edges="0:1 1:5"/>
    </vehicle>
    <vehicle id="71" depart="28.40">
        <route edges="2:0 0:1 1:5"/>
    </vehicle>
    <vehicle id="72" depart="28.80">
        <route edges="3:1 1:0 0:2"/>
    </vehicle>
    <vehicle id="75" depart="30.00">
        <route edges="0:1 1:3 3:7"/>
    </vehicle>
    <vehicle id="77" depart="30.80">
        <route edges="7:3 3:1 1:0 0:2"/>
    </vehicle>
    <vehicle id="79" depart="31.60">
        <route edges="6:5 5:1 1:3 3:7"/>
    </vehicle>
    <vehicle id="80" depart="32.00">
        <route edges="2:0 0:1 1:3"/>
    </vehicle>
    <vehicle id="82" depart="32.80">
        <route edges="6:5 5:1 1:0"/>
    </vehicle>
    <vehicle id="83" depart="33.20">
        <route edges="6:5 5:1 1:3"/>
    </vehicle>
    <vehicle id="84" depart="33.60">
        <route edges="1:0"/>
    </vehicle>
    <vehicle id="87" depart="34.80">
        <route edges="1:3"/>
    </vehicle>
    <vehicle id="89" depart="35.60">
        <route edges="7:3 3:1"/>
    </vehicle>
    <vehicle id="90" depart="36.00">
        <route edges="5:1 1:3 3:7"/>
    </vehicle>
    <vehicle id="91" depart="36.40">
        <route edges="3:1 1:5 5:6"/>
    </vehicle>
    <vehicle id="92" depart="36.80">
        <route edges="6:5 5:1 1:3"/>
    </vehicle>
    <vehicle id="93" depart="37.20">
        <route edges="1:0 0:2"/>
    </vehicle>
    <vehicle id="94" depart="37.60">
        <route edges="7:3 3:1 1:0 0:2"/>
    </vehicle>
    <vehicle id="97" depart="38.80">
        <route edges="6:5 5:1 1:3 3:7"/>
    </vehicle>
    <vehicle id="100" depart="40.00">
        <route edges="2:0 0:1 1:3"/>
    </vehicle>
    <vehicle id="101" depart="40.40">
        <route edges="5:1 1:0 0:2"/>
    </vehicle>
    <vehicle id="102" depart="40.80">
        <route edges="3:1"/>
    </vehicle>
    <vehicle id="104" depart="41.60">
        <route edges="2:0 0:1"/>
    </vehicle>
    <vehicle id="105" depart="42.00">
        <route edges="1:3 3:7"/>
    </vehicle>
    <vehicle id="107" depart="42.80">
        <route edges="7:3 3:1"/>
    </vehicle>
    <vehicle id="108" depart="43.20">
        <route edges="2:0 0:1 1:5 5:6"/>
    </vehicle>
    <vehicle id="109" depart="43.60">
        <route edges="0:1 1:3 3:7"/>
    </vehicle>
    <vehicle id="111" depart="44.40">
        <route edges="7:3 3:1 1:0 0:2"/>
    </vehicle>
    <vehicle id="112" depart="44.80">
        <route edges="3:1 1:0"/>
    </vehicle>
    <vehicle id="113" depart="45.20">
        <route edges="1:0"/>
    </vehicle>
    <vehicle id="114" depart="45.60">
        <route edges="0:1"/>
    </vehicle>
    <vehicle id="115" depart="46.00">
        <route edges="6:5 5:1 1:3"/>
    </vehicle>
    <vehicle id="116" depart="46.40">
        <route edges="3:1 1:5 5:6"/>
    </vehicle>
    <vehicle id="118" depart="47.20">
        <route edges="1:3 3:7"/>
    </vehicle>
    <vehicle id="120" depart="48.00">
        <route edges="7:3 3:1 1:5"/>
    </vehicle>
    <vehicle id="121" depart="48.40">
        <route edges="7:3 3:1 1:5 5:6"/>
    </vehicle>
    <vehicle id="125" depart="50.00">
        <route edges="2:0 0:1 1:5 5:6"/>
    </vehicle>
    <vehicle id="127" depart="50.80">
        <route edges="7:3 3:1"/>
    </vehicle>
    <vehicle id="128" depart="51.20">
        <route edges="2:0 0:1 1:3 3:7"/>
    </vehicle>
    <vehicle id="129" depart="51.60">
        <route edges="6:5 5:1 1:0 0:2"/>
    </vehicle>
    <vehicle id="130" depart="52.00">
        <route edges="3:1 1:5"/>
    </vehicle>
    <vehicle id="133" depart="53.20">
        <route edges="1:3 3:7"/>
    </vehicle>
    <vehicle id="134" depart="53.60">
        <route edges="7:3 3:1 1:0 0:2"/>
    </vehicle>
    <vehicle id="135" depart="54.00">
        <route edges="0:1 1:5 5:6"/>
    </vehicle>
    <vehicle id="136" depart="54.40">
        <route edges="6:5 5:1 1:3 3:7"/>
    </vehicle>
    <vehicle id="139" depart="55.60">
        <route edges="0:1 1:3 3:7"/>
    </vehicle>
    <vehicle id="140" depart="56.00">
        <route edges="5:1 1:3 3:7"/>
    </vehicle>
    <vehicle id="141" depart="56.40">
        <route edges="0:1 1:3 3:7"/>
    </vehicle>
    <vehicle id="144" depart="57.60">
        <route edges="1:5 5:6"/>
    </vehicle>
    <vehicle id="145" depart="58.00">
        <route edges="2:0 0:1"/>
    </vehicle>
    <vehicle id="147" depart="58.80">
        <route edges="7:3 3:1 1:0"/>
    </vehicle>
    <vehicle id="154" depart="61.60">
        <route edges="0:1"/>
    </vehicle>
    <vehicle id="162" depart="64.80">
        <route edges="1:0"/>
    </vehicle>
    <vehicle id="163" depart="65.20">
        <route edges="6:5 5:1 1:3 3:7"/>
    </vehicle>
    <vehicle id="164" depart="65.60">
        <route edges="5:1 1:0 0:2"/>
    </vehicle>
    <vehicle id="168" depart="67.20">
        <route edges="7:3 3:1 1:0 0:2"/>
    </vehicle>
    <vehicle id="169" depart="67.60">
        <route edges="2:0 0:1 1:3 3:7"/>
    </vehicle>
    <vehicle id="170" depart="68.00">
        <route edges="7:3 3:1 1:0 0:2"/>
    </vehicle>
    <vehicle id="172" depart="68.80">
        <route edges="7:3 3:1 1:5 5:6"/>
    </vehicle>
    <vehicle id="174" depart="69.60">
        <route edges="6:5 5:1 1:3 3:7"/>
    </vehicle>
    <vehicle id="175" depart="70.00">
        <route edges="2:0 0:1 1:3"/>
    </vehicle>
    <vehicle id="176" depart="70.40">
        <route edges="1:0 0:2"/>
    </vehicle>
    <vehicle id="177" depart="70.80">
        <route edges="6:5 5:1 1:0"/>
    </vehicle>
    <vehicle id="178" depart="71.20">
        <route edges="3:1 1:5 5:6"/>
    </vehicle>
    <vehicle id="181" depart="72.40">
        <route edges="5:1"/>
    </vehicle>
    <vehicle id="183" depart="73.20">
        <route edges="7:3 3:1 1:0 0:2"/>
    </vehicle>
    <vehicle id="185" depart="74.00">
        <route edges="0:1"/>
    </vehicle>
    <vehicle id="186" depart="74.40">
        <route edges="0:1"/>
    </vehicle>
    <vehicle id="189" depart="75.60">
        <route edges="2:0 0:1 1:3"/>
    </vehicle>
    <vehicle id="192" depart="76.80">
        <route edges="7:3 3:1 1:5"/>
    </vehicle>
    <vehicle id="198" depart="79.20">
        <route edges="6:5 5:1 1:0 0:2"/>
    </vehicle>
    <vehicle id="199" depart="79.60">
        <route edges="5:1 1:3"/>
    </vehicle>
    <vehicle id="200" depart="80.00">
        <route edges="6:5 5:1 1:0"/>
    </vehicle>
    <vehicle id="201" depart="80.40">
        <route edges="2:0 0:1 1:5 5:6"/>
    </vehicle>
    <vehicle id="202" depart="80.80">
        <route edges="2:0 0:1 1:3 3:7"/>
    </vehicle>
    <vehicle id="206" depart="82.40">
        <route edges="3:1 1:0 0:2"/>
    </vehicle>
    <vehicle id="207" depart="82.80">
        <route edges="7:3 3:1 1:0 0:2"/>
    </vehicle>
    <vehicle id="210" depart="84.00">
        <route edges="1:0 0:2"/>
    </vehicle>
    <vehicle id="211" depart="84.40">
        <route edges="0:1 1:3 3:7"/>
    </vehicle>
    <vehicle id="213" depart="85.20">
        <route edges="0:1"/>
    </vehicle>
    <vehicle id="214" depart="85.60">
        <route edges="2:0 0:1 1:5"/>
    </vehicle>
    <vehicle id="215" depart="86.00">
        <route edges="7:3 3:1 1:0 0:2"/>
    </vehicle>
    <vehicle id="217" depart="86.80">
        <route edges="6:5 5:1 1:0 0:2"/>
    </vehicle>
    <vehicle id="219" depart="87.60">
        <route edges="2:0 0:1 1:3 3:7"/>
    </vehicle>
    <vehicle id="222" depart="88.80">
        <route edges="3:1 1:5"/>
    </vehicle>
    <vehicle id="224" depart="89.60">
        <route edges="5:1 1:3"/>
    </vehicle>
    <vehicle id="226" depart="90.40">
        <route edges="1:3 3:7"/>
    </vehicle>
    <vehicle id="228" depart="91.20">
        <route edges="3:1"/>
    </vehicle>
    <vehicle id="229" depart="91.60">
        <route edges="7:3 3:1 1:5 5:6"/>
    </vehicle>
    <vehicle id="230" depart="92.00">
        <route edges="2:0 0:1 1:3"/>
    </vehicle>
    <vehicle id="234" depart="93.60">
        <route edges="7:3 3:1 1:0 0:2"/>
    </vehicle>
    <vehicle id="237" depart="94.80">
        <route edges="2:0 0:1 1:3 3:7"/>
    </vehicle>
    <vehicle id="238" depart="95.20">
        <route edges="7:3 3:1 1:5 5:6"/>
    </vehicle>
    <vehicle id="239" depart="95.60">
        <route edges="2:0 0:1"/>
    </vehicle>
    <vehicle id="241" depart="96.40">
        <route edges="7:3 3:1 1:0 0:2"/>
    </vehicle>
    <vehicle id="242" depart="96.80">
        <route edges="2:0 0:1 1:3"/>
    </vehicle>
    <vehicle id="243" depart="97.20">
        <route edges="2:0 0:1 1:3 3:7"/>
    </vehicle>
    <vehicle id="245" depart="98.00">
        <route edges="3:1 1:5"/>
    </vehicle>
    <vehicle id="247" depart="98.80">
        <route edges="5:1 1:3"/>
    </vehicle>
    <vehicle id="248" depart="99.20">
        <route edges="6:5 5:1 1:3 3:7"/>
    </vehicle>
    <vehicle id="249" depart="99.60">
        <route edges="2:0 0:1 1:3"/>
    </vehicle>
    <vehicle id="250" depart="100.00">
        <route edges="7:3 3:1 1:0 0:2"/>
    </vehicle>
    <vehicle id="251" depart="100.40">
        <route edges="3:1 1:0 0:2"/>
    </vehicle>
    <vehicle id="256" depart="102.40">
        <route edges="3:1 1:5 5:6"/>
    </vehicle>
    <vehicle id="258" depart="103.20">
        <route edges="7:3 3:1 1:0 0:2"/>
    </vehicle>
    <vehicle id="259" depart="103.60">
        <route edges="5:1 1:0 0:2"/>
    </vehicle>
    <vehicle id="260" depart="104.00">
        <route edges="6:5 5:1 1:3 3:7"/>
    </vehicle>
    <vehicle id="262" depart="104.80">
        <route edges="7:3 3:1 1:0 0:2"/>
    </vehicle>
    <vehicle id="263" depart="105.20">
        <route edges="1:3 3:7"/>
    </vehicle>
    <vehicle id="264" depart="105.60">
        <route edges="2:0 0:1 1:5 5:6"/>
    </vehicle>
    <vehicle id="265" depart="106.00">
        <route edges="0:1 1:3"/>
    </vehicle>
    <vehicle id="266" depart="106.40">
        <route edges="3:1 1:0"/>
    </vehicle>
    <vehicle id="267" depart="106.80">
        <route edges="2:0 0:1 1:5 5:6"/>
    </vehicle>
    <vehicle id="268" depart="107.20">
        <route edges="6:5 5:1 1:3 3:7"/>
    </vehicle>
    <vehicle id="269" depart="107.60">
        <route edges="7:3 3:1 1:0 0:2"/>
    </vehicle>
    <vehicle id="272" depart="108.80">
        <route edges="2:0 0:1 1:5 5:6"/>
    </vehicle>
    <vehicle id="277" depart="110.80">
        <route edges="2:0 0:1 1:5"/>
    </vehicle>
    <vehicle id="278" depart="111.20">
        <route edges="7:3 3:1 1:0"/>
    </vehicle>
    <vehicle id="279" depart="111.60">
        <route edges="5:1 1:3 3:7"/>
    </vehicle>
    <vehicle id="280" depart="112.00">
        <route edges="7:3 3:1"/>
    </vehicle>
    <vehicle id="283" depart="113.20">
        <route edges="3:1"/>
    </vehicle>
    <vehicle id="284" depart="113.60">
        <route edges="2:0 0:1 1:3"/>
    </vehicle>
    <vehicle id="285" depart="114.00">
        <route edges="6:5 5:1 1:3 3:7"/>
    </vehicle>
    <vehicle id="286" depart="114.40">
        <route edges="6:5 5:1 1:0 0:2"/>
    </vehicle>
    <vehicle id="289" depart="115.60">
        <route edges="2:0 0:1 1:3"/>
    </vehicle>
    <vehicle id="297" depart="118.80">
        <route edges="2:0 0:1 1:3 3:7"/>
    </vehicle>
    <vehicle id="298" depart="119.20">
        <route edges="2:0 0:1 1:5"/>
    </vehicle>
    <vehicle id="299" depart="119.60">
        <route edges="0:1"/>
    </vehicle>
    <vehicle id="301" depart="120.40">
        <route edges="6:5 5:1 1:0"/>
    </vehicle>
    <vehicle id="302" depart="120.80">
        <route edges="2:0 0:1 1:5 5:6"/>
    </vehicle>
    <vehicle id="303" depart="121.20">
        <route edges="0:1 1:3 3:7"/>
    </vehicle>
    <vehicle id="304" depart="121.60">
        <route edges="1:3"/>
    </vehicle>
    <vehicle id="306" depart="122.40">
        <route edges="3:1 1:0 0:2"/>
    </vehicle>
    <vehicle id="311" depart="124.40">
        <route edges="7:3 3:1 1:0 0:2"/>
    </vehicle>
    <vehicle id="312" depart="124.80">
        <route edges="2:0 0:1 1:5 5:6"/>
    </vehicle>
    <vehicle id="320" depart="128.00">
        <route edges="7:3 3:1 1:5"/>
    </vehicle>
    <vehicle id="324" depart="129.60">
        <route edges="5:1 1:3"/>
    </vehicle>
    <vehicle id="325" depart="130.00">
        <route edges="5:1 1:3"/>
    </vehicle>
    <vehicle id="326" depart="130.40">
        <route edges="5:1 1:3"/>
    </vehicle>
    <vehicle id="327" depart="130.80">
        <route edges="3:1 1:0 0:2"/>
    </vehicle>
    <vehicle id="329" depart="131.60">
        <route edges="7:3 3:1 1:0"/>
    </vehicle>
    <vehicle id="330" depart="132.00">
        <route edges="7:3 3:1 1:0 0:2"/>
    </vehicle>
    <vehicle id="331" depart="132.40">
        <route edges="1:0"/>
    </vehicle>
    <vehicle id="332" depart="132.80">
        <route edges="3:1 1:5 5:6"/>
    </vehicle>
    <vehicle id="333" depart="133.20">
        <route edges="2:0 0:1 1:3 3:7"/>
    </vehicle>
    <vehicle id="336" depart="134.40">
        <route edges="6:5 5:1 1:3 3:7"/>
    </vehicle>
    <vehicle id="338" depart="135.20">
        <route edges="1:0 0:2"/>
    </vehicle>
    <vehicle id="339" depart="135.60">
        <route edges="7:3 3:1 1:0"/>
    </vehicle>
    <vehicle id="341" depart="136.40">
        <route edges="5:1 1:0"/>
    </vehicle>
    <vehicle id="343" depart="137.20">
        <route edges="7:3 3:1"/>
    </vehicle>
    <vehicle id="347" depart="138.80">
        <route edges="5:1 1:3"/>
    </vehicle>
    <vehicle id="349" depart="139.60">
        <route edges="5:1 1:3 3:7"/>
    </vehicle>
    <vehicle id="351" depart="140.40">
        <route edges="2:0 0:1 1:3 3:7"/>
    </vehicle>
    <vehicle id="352" depart="140.80">
        <route edges="2:0 0:1 1:5 5:6"/>
    </vehicle>
    <vehicle id="354" depart="141.60">
        <route edges="6:5 5:1 1:0 0:2"/>
    </vehicle>
    <vehicle id="356" depart="142.40">
        <route edges="7:3 3:1 1:0 0:2"/>
    </vehicle>
    <vehicle id="363" depart="145.20">
        <route edges="3:1 1:0 0:2"/>
    </vehicle>
    <vehicle id="364" depart="145.60">
        <route edges="7:3 3:1 1:5"/>
    </vehicle>
    <vehicle id="366" depart="146.40">
        <route edges="2:0 0:1 1:5 5:6"/>
    </vehicle>
    <vehicle id="367" depart="146.80">
        <route edges="7:3 3:1"/>
    </vehicle>
    <vehicle id="368" depart="147.20">
        <route edges="7:3 3:1 1:5"/>
    </vehicle>
    <vehicle id="370" depart="148.00">
        <route edges="1:3 3:7"/>
    </vehicle>
    <vehicle id="373" depart="149.20">
        <route edges="1:3"/>
    </vehicle>
    <vehicle id="374" depart="149.60">
        <route edges="7:3 3:1"/>
    </vehicle>
    <vehicle id="376" depart="150.40">
        <route edges="1:0 0:2"/>
    </vehicle>
    <vehicle id="382" depart="152.80">
        <route edges="0:1 1:5 5:6"/>
    </vehicle>
    <vehicle id="390" depart="156.00">
        <route edges="1:0"/>
    </vehicle>
    <vehicle id="392" depart="156.80">
        <route edges="2:0 0:1 1:3"/>
    </vehicle>
    <vehicle id="395" depart="158.00">
        <route edges="2:0 0:1"/>
    </vehicle>
    <vehicle id="398" depart="159.20">
        <route edges="0:1 1:5 5:6"/>
    </vehicle>
    <vehicle id="399" depart="159.60">
        <route edges="7:3 3:1 1:5 5:6"/>
    </vehicle>
    <vehicle id="400" depart="160.00">
        <route edges="0:1 1:3 3:7"/>
    </vehicle>
    <vehicle id="401" depart="160.40">
        <route edges="0:1 1:5 5:6"/>
    </vehicle>
    <vehicle id="404" depart="161.60">
        <route edges="2:0 0:1 1:3 3:7"/>
    </vehicle>
    <vehicle id="405" depart="162.00">
        <route edges="2:0 0:1 1:3"/>
    </vehicle>
    <vehicle id="406" depart="162.40">
        <route edges="3:1 1:0"/>
    </vehicle>
    <vehicle id="409" depart="163.60">
        <route edges="3:1 1:5"/>
    </vehicle>
    <vehicle id="411" depart="164.40">
        <route edges="2:0 0:1 1:3"/>
    </vehicle>
    <vehicle id="414" depart="165.60">
        <route edges="3:1 1:0"/>
    </vehicle>
    <vehicle id="416" depart="166.40">
        <route edges="1:3 3:7"/>
    </vehicle>
    <vehicle id="419" depart="167.60">
        <route edges="7:3 3:1 1:0 0:2"/>
    </vehicle>
    <vehicle id="420" depart="168.00">
        <route edges="3:1 1:0 0:2"/>
    </vehicle>
    <vehicle id="423" depart="169.20">
        <route edges="2:0 0:1 1:3 3:7"/>
    </vehicle>
    <vehicle id="427" depart="170.80">
        <route edges="3:1"/>
    </vehicle>
    <vehicle id="428" depart="171.20">
        <route edges="5:1 1:3 3:7"/>
    </vehicle>
    <vehicle id="429" depart="171.60">
        <route edges="5:1 1:0 0:2"/>
    </vehicle>
    <vehicle id="432" depart="172.80">
        <route edges="0:1 1:3 3:7"/>
    </vehicle>
    <vehicle id="435" depart="174.00">
        <route edges="7:3 3:1 1:0 0:2"/>
    </vehicle>
    <vehicle id="436" depart="174.40">
        <route edges="2:0 0:1 1:3 3:7"/>
    </vehicle>
    <vehicle id="439" depart="175.60">
        <route edges="6:5 5:1 1:0"/>
    </vehicle>
    <vehicle id="444" depart="177.60">
        <route edges="7:3 3:1 1:0"/>
    </vehicle>
    <vehicle id="446" depart="178.40">
        <route edges="3:1 1:0"/>
    </vehicle>
    <vehicle id="448" depart="179.20">
        <route edges="7:3 3:1"/>
    </vehicle>
    <vehicle id="451" depart="180.40">
        <route edges="1:3 3:7"/>
    </vehicle>
    <vehicle id="453" depart="181.20">
        <route edges="2:0 0:1 1:5 5:6"/>
    </vehicle>
    <vehicle id="457" depart="182.80">
        <route edges="2:0 0:1 1:3 3:7"/>
    </vehicle>
    <vehicle id="458" depart="183.20">
        <route edges="3:1 1:5 5:6"/>
    </vehicle>
    <vehicle id="460" depart="184.00">
        <route edges="6:5 5:1 1:3"/>
    </vehicle>
    <vehicle id="461" depart="184.40">
        <route edges="1:0 0:2"/>
    </vehicle>
    <vehicle id="462" depart="184.80">
        <route edges="5:1 1:0"/>
    </vehicle>
    <vehicle id="465" depart="186.00">
        <route edges="2:0 0:1"/>
    </vehicle>
    <vehicle id="467" depart="186.80">
        <route edges="3:1 1:0 0:2"/>
    </vehicle>
    <vehicle id="468" depart="187.20">
        <route edges="5:1 1:3 3:7"/>
    </vehicle>
    <vehicle id="469" depart="187.60">
        <route edges="7:3 3:1 1:0"/>
    </vehicle>
    <vehicle id="478" depart="191.20">
        <route edges="2:0 0:1 1:3 3:7"/>
    </vehicle>
    <vehicle id="481" depart="192.40">
        <route edges="0:1 1:5"/>
    </vehicle>
    <vehicle id="482" depart="192.80">
        <route edges="0:1"/>
    </vehicle>
    <vehicle id="484" depart="193.60">
        <route edges="1:3 3:7"/>
    </vehicle>
    <vehicle id="485" depart="194.00">
        <route edges="3:1 1:0 0:2"/>
    </vehicle>
    <vehicle id="486" depart="194.40">
        <route edges="7:3 3:1 1:0 0:2"/>
    </vehicle>
    <vehicle id="491" depart="196.40">
        <route edges="3:1 1:0 0:2"/>
    </vehicle>
    <vehicle id="493" depart="197.20">
        <route edges="2:0 0:1 1:3"/>
    </vehicle>
    <vehicle id="494" depart="197.60">
        <route edges="2:0 0:1 1:3 3:7"/>
    </vehicle>
    <vehicle id="495" depart="198.00">
        <route edges="6:5 5:1 1:3 3:7"/>
    </vehicle>
    <vehicle id="499" depart="199.60">
        <route edges="2:0 0:1"/>
    </vehicle>
    <vehicle id="500" depart="200.00">
        <route edges="2:0 0:1 1:3 3:7"/>
    </vehicle>
    <vehicle id="501" depart="200.40">
        <route edges="0:1 1:5"/>
    </vehicle>
    <vehicle id="502" depart="200.80">
        <route edges="5:1 1:3 3:7"/>
    </vehicle>
    <vehicle id="503" depart="201.20">
        <route edges="2:0 0:1 1:3"/>
    </vehicle>
    <vehicle id="505" depart="202.00">
        <route edges="7:3 3:1 1:0 0:2"/>
    </vehicle>
    <vehicle id="506" depart="202.40">
        <route edges="7:3 3:1"/>
    </vehicle>
    <vehicle id="510" depart="204.00">
        <route edges="6:5 5:1 1:3 3:7"/>
    </vehicle>
    <vehicle id="511" depart="204.40">
        <route edges="1:0"/>
    </vehicle>
    <vehicle id="512" depart="204.80">
        <route edges="3:1 1:0 0:2"/>
    </vehicle>
    <vehicle id="514" depart="205.60">
        <route edges="3:1"/>
    </vehicle>
    <vehicle id="516" depart="206.40">
        <route edges="7:3 3:1"/>
    </vehicle>
    <vehicle id="517" depart="206.80">
        <route edges="7:3 3:1 1:0 0:2"/>
    </vehicle>
    <vehicle id="518" depart="207.20">
        <route edges="5:1 1:0 0:2"/>
    </vehicle>
    <vehicle id="520" depart="208.00">
        <route edges="3:1"/>
    </vehicle>
    <vehicle id="522" depart="208.80">
        <route edges="1:3"/>
    </vehicle>
    <vehicle id="525" depart="210.00">
        <route edges="6:5 5:1 1:0 0:2"/>
    </vehicle>
    <vehicle id="526" depart="210.40">
        <route edges="0:1 1:5"/>
    </vehicle>
    <vehicle id="528" depart="211.20">
        <route edges="3:1 1:0"/>
    </vehicle>
    <vehicle id="529" depart="211.60">
        <route edges="7:3 3:1 1:0"/>
    </vehicle>
    <vehicle id="532" depart="212.80">
        <route edges="7:3 3:1"/>
    </vehicle>
    <vehicle id="533" depart="213.20">
        <route edges="6:5 5:1 1:0"/>
    </vehicle>
    <vehicle id="534" depart="213.60">
        <route edges="1:3 3:7"/>
    </vehicle>
    <vehicle id="538" depart="215.20">
        <route edges="7:3 3:1 1:0 0:2"/>
    </vehicle>
    <vehicle id="539" depart="215.60">
        <route edges="7:3 3:1"/>
    </vehicle>
    <vehicle id="541" depart="216.40">
        <route edges="5:1 1:3 3:7"/>
    </vehicle>
    <vehicle id="543" depart="217.20">
        <route edges="2:0 0:1 1:3 3:7"/>
    </vehicle>
    <vehicle id="545" depart="218.00">
        <route edges="2:0 0:1 1:3"/>
    </vehicle>
    <vehicle id="547" depart="218.80">
        <route edges="0:1 1:3"/>
    </vehicle>
    <vehicle id="548" depart="219.20">
        <route edges="3:1 1:0"/>
    </vehicle>
    <vehicle id="549" depart="219.60">
        <route edges="2:0 0:1 1:5"/>
    </vehicle>
    <vehicle id="551" depart="220.40">
        <route edges="6:5 5:1 1:3"/>
    </vehicle>
    <vehicle id="552" depart="220.80">
        <route edges="2:0 0:1"/>
    </vehicle>
    <vehicle id="553" depart="221.20">
        <route edges="7:3 3:1 1:5 5:6"/>
    </vehicle>
    <vehicle id="556" depart="222.40">
        <route edges="2:0 0:1 1:3 3:7"/>
    </vehicle>
    <vehicle id="557" depart="222.80">
        <route edges="0:1 1:3 3:7"/>
    </vehicle>
    <vehicle id="558" depart="223.20">
        <route edges="2:0 0:1 1:3 3:7"/>
    </vehicle>
    <vehicle id="560" depart="224.00">
        <route edges="7:3 3:1 1:0 0:2"/>
    </vehicle>
    <vehicle id="562" depart="224.80">
        <route edges="6:5 5:1 1:0 0:2"/>
    </vehicle>
    <vehicle id="565" depart="226.00">
        <route edges="2:0 0:1 1:3 3:7"/>
    </vehicle>
    <vehicle id="566" depart="226.40">
        <route edges="2:0 0:1 1:3"/>
    </vehicle>
    <vehicle id="569" depart="227.60">
        <route edges="7:3 3:1 1:0 0:2"/>
    </vehicle>
    <vehicle id="570" depart="228.00">
        <route edges="6:5 5:1 1:3"/>
    </vehicle>
    <vehicle id="571" depart="228.40">
        <route edges="3:1 1:0 0:2"/>
    </vehicle>
    <vehicle id="572" depart="228.80">
        <route edges="0:1 1:3"/>
    </vehicle>
    <vehicle id="575" depart="230.00">
        <route edges="1:0 0:2"/>
    </vehicle>
    <vehicle id="576" depart="230.40">
        <route edges="0:1 1:5"/>
    </vehicle>
    <vehicle id="580" depart="232.00">
        <route edges="7:3 3:1 1:0 0:2"/>
    </vehicle>
    <vehicle id="582" depart="232.80">
        <route edges="2:0 0:1 1:3 3:7"/>
    </vehicle>
    <vehicle id="586" depart="234.40">
        <route edges="6:5 5:1 1:0"/>
    </vehicle>
    <vehicle id="587" depart="234.80">
        <route edges="0:1 1:5 5:6"/>
    </vehicle>
    <vehicle id="589" depart="235.60">
        <route edges="1:3"/>
    </vehicle>
    <vehicle id="591" depart="236.40">
        <route edges="1:0"/>
    </vehicle>
    <vehicle id="593" depart="237.20">
        <route edges="2:0 0:1"/>
    </vehicle>
    <vehicle id="594" depart="237.60">
        <route edges="2:0 0:1 1:3"/>
    </vehicle>
    <vehicle id="595" depart="238.00">
        <route edges="2:0 0:1 1:3"/>
    </vehicle>
    <vehicle id="600" depart="240.00">
        <route edges="6:5 5:1 1:0 0:2"/>
    </vehicle>
    <vehicle id="603" depart="241.20">
        <route edges="2:0 0:1"/>
    </vehicle>
    <vehicle id="604" depart="241.60">
        <route edges="7:3 3:1 1:0 0:2"/>
    </vehicle>
    <vehicle id="605" depart="242.00">
        <route edges="1:3"/>
    </vehicle>
    <vehicle id="608" depart="243.20">
        <route edges="3:1 1:0"/>
    </vehicle>
    <vehicle id="609" depart="243.60">
        <route edges="7:3 3:1 1:0 0:2"/>
    </vehicle>
    <vehicle id="610" depart="244.00">
        <route edges="1:0 0:2"/>
    </vehicle>
    <vehicle id="611" depart="244.40">
        <route edges="7:3 3:1 1:5"/>
    </vehicle>
    <vehicle id="612" depart="244.80">
        <route edges="6:5 5:1"/>
    </vehicle>
    <vehicle id="615" depart="246.00">
        <route edges="5:1 1:0 0:2"/>
    </vehicle>
    <vehicle id="620" depart="248.00">
        <route edges="2:0 0:1 1:3 3:7"/>
    </vehicle>
    <vehicle id="621" depart="248.40">
        <route edges="0:1 1:5"/>
    </vehicle>
    <vehicle id="625" depart="250.00">
        <route edges="7:3 3:1 1:0"/>
    </vehicle>
    <vehicle id="626" depart="250.40">
        <route edges="1:3 3:7"/>
    </vehicle>
    <vehicle id="627" depart="250.80">
        <route edges="2:0 0:1 1:3"/>
    </vehicle>
    <vehicle id="628" depart="251.20">
        <route edges="0:1 1:3 3:7"/>
    </vehicle>
    <vehicle id="629" depart="251.60">
        <route edges="2:0 0:1 1:3 3:7"/>
    </vehicle>
    <vehicle id="630" depart="252.00">
        <route edges="7:3 3:1 1:0 0:2"/>
    </vehicle>
    <vehicle id="632" depart="252.80">
        <route edges="1:3"/>
    </vehicle>
    <vehicle id="633" depart="253.20">
        <route edges="1:0 0:2"/>
    </vehicle>
    <vehicle id="634" depart="253.60">
        <route edges="3:1 1:5 5:6"/>
    </vehicle>
    <vehicle id="635" depart="254.00">
        <route edges="7:3 3:1"/>
    </vehicle>
    <vehicle id="637" depart="254.80">
        <route edges="2:0 0:1 1:3 3:7"/>
    </vehicle>
    <vehicle id="638" depart="255.20">