<?xml version="1.0" encoding="UTF-8"?>

<!-- generated on Thu Feb 13 12:40:01 2014 by SUMO duarouter Version 0.18.0
<?xml version="1.0" encoding="UTF-8"?>

<configuration xmlns:xsi="http://www.w3.org/2001/XMLSchema-instance" xsi:noNamespaceSchemaLocation="http://sumo.sf.net/xsd/duarouterConfiguration.xsd">

    <input>
        <net-file value="simpleT.net.xml"/>
        <trip-files value="experimentos/simpleT.p1.0.9.trips.xml"/>
    </input>

    <output>
        <output-file value="experimentos/simpleT.p1.0.9.rou.xml"/>
    </output>

    <processing>
        <ignore-errors value="true"/>
    </processing>

    <random_number>
        <random value="true"/>
    </random_number>

</configuration>
-->

<routes xmlns:xsi="http://www.w3.org/2001/XMLSchema-instance" xsi:noNamespaceSchemaLocation="http://sumo.sf.net/xsd/routes_file.xsd">
    <vehicle id="0" depart="0.00">
        <route edges="2:0 0:1 1:3 3:7"/>
    </vehicle>
    <vehicle id="1" depart="1.00">
        <route edges="2:0 0:1 1:3 3:7"/>
    </vehicle>
    <vehicle id="2" depart="2.00">
        <route edges="7:3 3:1 1:0"/>
    </vehicle>
    <vehicle id="6" depart="6.00">
        <route edges="2:0 0:1 1:3 3:7"/>
    </vehicle>
    <vehicle id="8" depart="8.00">
        <route edges="2:0 0:1"/>
    </vehicle>
    <vehicle id="13" depart="13.00">
        <route edges="2:0 0:1 1:5"/>
    </vehicle>
    <vehicle id="17" depart="17.00">
        <route edges="3:1 1:0 0:2"/>
    </vehicle>
    <vehicle id="18" depart="18.00">
        <route edges="1:0 0:2"/>
    </vehicle>
    <vehicle id="20" depart="20.00">
        <route edges="1:3"/>
    </vehicle>
    <vehicle id="23" depart="23.00">
        <route edges="1:3 3:7"/>
    </vehicle>
    <vehicle id="24" depart="24.00">
        <route edges="7:3 3:1 1:0"/>
    </vehicle>
    <vehicle id="26" depart="26.00">
        <route edges="0:1"/>
    </vehicle>
    <vehicle id="27" depart="27.00">
        <route edges="1:0"/>
    </vehicle>
    <vehicle id="28" depart="28.00">
        <route edges="6:5 5:1 1:0 0:2"/>
    </vehicle>
    <vehicle id="30" depart="30.00">
        <route edges="2:0 0:1 1:3 3:7"/>
    </vehicle>
    <vehicle id="31" depart="31.00">
        <route edges="7:3 3:1 1:5"/>
    </vehicle>
    <vehicle id="33" depart="33.00">
        <route edges="2:0 0:1 1:3"/>
    </vehicle>
    <vehicle id="35" depart="35.00">
        <route edges="7:3 3:1 1:0"/>
    </vehicle>
    <vehicle id="36" depart="36.00">
        <route edges="0:1 1:3 3:7"/>
    </vehicle>
    <vehicle id="40" depart="40.00">
        <route edges="2:0 0:1 1:5"/>
    </vehicle>
    <vehicle id="41" depart="41.00">
        <route edges="7:3 3:1 1:5 5:6"/>
    </vehicle>
    <vehicle id="43" depart="43.00">
        <route edges="1:3 3:7"/>
    </vehicle>
    <vehicle id="44" depart="44.00">
        <route edges="7:3 3:1 1:0 0:2"/>
    </vehicle>
    <vehicle id="45" depart="45.00">
        <route edges="6:5 5:1"/>
    </vehicle>
    <vehicle id="46" depart="46.00">
        <route edges="1:3 3:7"/>
    </vehicle>
    <vehicle id="47" depart="47.00">
        <route edges="6:5 5:1 1:3 3:7"/>
    </vehicle>
    <vehicle id="53" depart="53.00">
        <route edges="1:0"/>
    </vehicle>
    <vehicle id="55" depart="55.00">
        <route edges="6:5 5:1 1:3"/>
    </vehicle>
    <vehicle id="57" depart="57.00">
        <route edges="7:3 3:1 1:5 5:6"/>
    </vehicle>
    <vehicle id="58" depart="58.00">
        <route edges="7:3 3:1 1:0"/>
    </vehicle>
    <vehicle id="62" depart="62.00">
        <route edges="1:0"/>
    </vehicle>
    <vehicle id="65" depart="65.00">
        <route edges="2:0 0:1 1:5"/>
    </vehicle>
    <vehicle id="66" depart="66.00">
        <route edges="3:1"/>
    </vehicle>
    <vehicle id="67" depart="67.00">
        <route edges="3:1"/>
    </vehicle>
    <vehicle id="69" depart="69.00">
        <route edges="1:3 3:7"/>
    </vehicle>
    <vehicle id="73" depart="73.00">
        <route edges="2:0 0:1"/>
    </vehicle>
    <vehicle id="74" depart="74.00">
        <route edges="7:3 3:1 1:0 0:2"/>
    </vehicle>
    <vehicle id="77" depart="77.00">
        <route edges="1:0 0:2"/>
    </vehicle>
    <vehicle id="78" depart="78.00">
        <route edges="2:0 0:1 1:3"/>
    </vehicle>
    <vehicle id="80" depart="80.00">
        <route edges="6:5 5:1 1:3 3:7"/>
    </vehicle>
    <vehicle id="81" depart="81.00">
        <route edges="6:5 5:1 1:3 3:7"/>
    </vehicle>
    <vehicle id="83" depart="83.00">
        <route edges="3:1 1:0 0:2"/>
    </vehicle>
    <vehicle id="87" depart="87.00">
        <route edges="3:1"/>
    </vehicle>
    <vehicle id="89" depart="89.00">
        <route edges="2:0 0:1 1:3 3:7"/>
    </vehicle>
    <vehicle id="90" depart="90.00">
        <route edges="7:3 3:1"/>
    </vehicle>
    <vehicle id="95" depart="95.00">
        <route edges="6:5 5:1 1:3 3:7"/>
    </vehicle>
    <vehicle id="97" depart="97.00">
        <route edges="0:1 1:5 5:6"/>
    </vehicle>
    <vehicle id="99" depart="99.00">
        <route edges="6:5 5:1 1:3"/>
    </vehicle>
    <vehicle id="100" depart="100.00">
        <route edges="7:3 3:1 1:0 0:2"/>
    </vehicle>
    <vehicle id="101" depart="101.00">
        <route edges="7:3 3:1 1:0 0:2"/>
    </vehicle>
    <vehicle id="103" depart="103.00">
        <route edges="2:0 0:1 1:5 5:6"/>
    </vehicle>
    <vehicle id="104" depart="104.00">
        <route edges="2:0 0:1 1:3 3:7"/>
    </vehicle>
    <vehicle id="107" depart="107.00">
        <route edges="1:3 3:7"/>
    </vehicle>
    <vehicle id="108" depart="108.00">
        <route edges="2:0 0:1"/>
    </vehicle>
    <vehicle id="109" depart="109.00">
        <route edges="0:1"/>
    </vehicle>
    <vehicle id="110" depart="110.00">
        <route edges="5:1 1:0 0:2"/>
    </vehicle>
    <vehicle id="114" depart="114.00">
        <route edges="7:3 3:1 1:5"/>
    </vehicle>
    <vehicle id="116" depart="116.00">
        <route edges="2:0 0:1 1:5"/>
    </vehicle>
    <vehicle id="117" depart="117.00">
        <route edges="1:3 3:7"/>
    </vehicle>
    <vehicle id="126" depart="126.00">
        <route edges="2:0 0:1 1:5 5:6"/>
    </vehicle>
    <vehicle id="130" depart="130.00">
        <route edges="3:1 1:5 5:6"/>
    </vehicle>
    <vehicle id="131" depart="131.00">
        <route edges="2:0 0:1"/>
    </vehicle>
    <vehicle id="133" depart="133.00">
        <route edges="7:3 3:1 1:0 0:2"/>
    </vehicle>
    <vehicle id="134" depart="134.00">
        <route edges="7:3 3:1 1:0 0:2"/>
    </vehicle>
    <vehicle id="137" depart="137.00">
        <route edges="0:1 1:5"/>
    </vehicle>
    <vehicle id="138" depart="138.00">
        <route edges="2:0 0:1 1:3"/>
    </vehicle>
    <vehicle id="142" depart="142.00">
        <route edges="0:1 1:3 3:7"/>
    </vehicle>
    <vehicle id="143" depart="143.00">
        <route edges="3:1 1:5 5:6"/>
    </vehicle>
    <vehicle id="146" depart="146.00">
        <route edges="7:3 3:1 1:0"/>
    </vehicle>
    <vehicle id="149" depart="149.00">
        <route edges="3:1 1:0 0:2"/>
    </vehicle>
    <vehicle id="150" depart="150.00">
        <route edges="7:3 3:1 1:0 0:2"/>
    </vehicle>
    <vehicle id="152" depart="152.00">
        <route edges="2:0 0:1 1:3"/>
    </vehicle>
    <vehicle id="155" depart="155.00">
        <route edges="0:1 1:5"/>
    </vehicle>
    <vehicle id="156" depart="156.00">
        <route edges="2:0 0:1"/>
    </vehicle>
    <vehicle id="157" depart="157.00">
        <route edges="2:0 0:1 1:3"/>
    </vehicle>
    <vehicle id="158" depart="158.00">
        <route edges="7:3 3:1 1:0 0:2"/>
    </vehicle>
    <vehicle id="161" depart="161.00">
        <route edges="2:0 0:1 1:5"/>
    </vehicle>
    <vehicle id="164" depart="164.00">
        <route edges="7:3 3:1 1:5 5:6"/>
    </vehicle>
    <vehicle id="165" depart="165.00">
        <route edges="5:1 1:0 0:2"/>
    </vehicle>
    <vehicle id="167" depart="167.00">
        <route edges="0:1 1:3 3:7"/>
    </vehicle>
    <vehicle id="170" depart="170.00">
        <route edges="7:3 3:1"/>
    </vehicle>
    <vehicle id="175" depart="175.00">
        <route edges="0:1 1:3 3:7"/>
    </vehicle>
    <vehicle id="177" depart="177.00">
        <route edges="2:0 0:1 1:3 3:7"/>
    </vehicle>
    <vehicle id="179" depart="179.00">
        <route edges="2:0 0:1 1:3"/>
    </vehicle>
    <vehicle id="185" depart="185.00">
        <route edges="2:0 0:1 1:3"/>
    </vehicle>
    <vehicle id="186" depart="186.00">
        <route edges="6:5 5:1 1:3"/>
    </vehicle>
    <vehicle id="187" depart="187.00">
        <route edges="2:0 0:1 1:3 3:7"/>
    </vehicle>
    <vehicle id="191" depart="191.00">
        <route edges="1:3 3:7"/>
    </vehicle>
    <vehicle id="192" depart="192.00">
        <route edges="6:5 5:1 1:0 0:2"/>
    </vehicle>
    <vehicle id="196" depart="196.00">
        <route edges="7:3 3:1 1:0"/>
    </vehicle>
    <vehicle id="197" depart="197.00">
        <route edges="1:0 0:2"/>
    </vehicle>
    <vehicle id="201" depart="201.00">
        <route edges="3:1 1:5 5:6"/>
    </vehicle>
    <vehicle id="202" depart="202.00">
        <route edges="7:3 3:1 1:0"/>
    </vehicle>
    <vehicle id="203" depart="203.00">
        <route edges="1:3 3:7"/>
    </vehicle>
    <vehicle id="204" depart="204.00">
        <route edges="2:0 0:1 1:3"/>
    </vehicle>
    <vehicle id="206" depart="206.00">
        <route edges="1:3 3:7"/>
    </vehicle>
    <vehicle id="210" depart="210.00">
        <route edges="6:5 5:1 1:0"/>
    </vehicle>
    <vehicle id="212" depart="212.00">
        <route edges="0:1 1:5 5:6"/>
    </vehicle>
    <vehicle id="215" depart="215.00">
        <route edges="7:3 3:1 1:0 0:2"/>
    </vehicle>
    <vehicle id="218" depart="218.00">
        <route edges="1:0 0:2"/>
    </vehicle>
    <vehicle id="220" depart="220.00">
        <route edges="1:0"/>
    </vehicle>
    <vehicle id="222" depart="222.00">
        <route edges="7:3 3:1"/>
    </vehicle>
    <vehicle id="225" depart="225.00">
        <route edges="7:3 3:1 1:0 0:2"/>
    </vehicle>
    <vehicle id="226" depart="226.00">
        <route edges="0:1 1:3 3:7"/>
    </vehicle>
    <vehicle id="228" depart="228.00">
        <route edges="0:1 1:3 3:7"/>
    </vehicle>
    <vehicle id="230" depart="230.00">
        <route edges="0:1 1:3 3:7"/>
    </vehicle>
    <vehicle id="232" depart="232.00">
        <route edges="2:0 0:1 1:3 3:7"/>
    </vehicle>
    <vehicle id="233" depart="233.00">
        <route edges="6:5 5:1 1:0 0:2"/>
    </vehicle>
    <vehicle id="234" depart="234.00">
        <route edges="0:1 1:3 3:7"/>
    </vehicle>
    <vehicle id="235" depart="235.00">
        <route edges="7:3 3:1 1:5"/>
    </vehicle>
    <vehicle id="237" depart="237.00">
        <route edges="0:1"/>
    </vehicle>
    <vehicle id="238" depart="238.00">
        <route edges="1:3 3:7"/>
    </vehicle>
    <vehicle id="243" depart="243.00">
        <route edges="2:0 0:1"/>
    </vehicle>
    <vehicle id="246" depart="246.00">
        <route edges="6:5 5:1 1:0"/>
    </vehicle>
    <vehicle id="249" depart="249.00">
        <route edges="3:1 1:0 0:2"/>
    </vehicle>
    <vehicle id="251" depart="251.00">
        <route edges="2:0 0:1 1:3 3:7"/>
    </vehicle>
    <vehicle id="252" depart="252.00">
        <route edges="0:1 1:3 3:7"/>
    </vehicle>
    <vehicle id="253" depart="253.00">
        <route edges="6:5 5:1 1:0"/>
    </vehicle>
    <vehicle id="255" depart="255.00">
        <route edges="7:3 3:1 1:0 0:2"/>
    </vehicle>
    <vehicle id="260" depart="260.00">
        <route edges="3:1 1:0 0:2"/>
    </vehicle>
    <vehicle id="261" depart="261.00">
        <route edges="7:3 3:1 1:5 5:6"/>
    </vehicle>
    <vehicle id="264" depart="264.00">
        <route edges="3:1 1:0"/>
    </vehicle>
    <vehicle id="265" depart="265.00">
        <route edges="6:5 5:1 1:0"/>
    </vehicle>
    <vehicle id="269" depart="269.00">
        <route edges="2:0 0:1"/>
    </vehicle>
    <vehicle id="270" depart="270.00">
        <route edges="1:3"/>
    </vehicle>
    <vehicle id="271" depart="271.00">
        <route edges="2:0 0:1 1:5 5:6"/>
    </vehicle>
    <vehicle id="272" depart="272.00">
        <route edges="3:1"/>
    </vehicle>
    <vehicle id="274" depart="274.00">
        <route edges="1:3 3:7"/>
    </vehicle>
    <vehicle id="275" depart="275.00">
        <route edges="0:1 1:3"/>
    </vehicle>
    <vehicle id="276" depart="276.00">
        <route edges="6:5 5:1 1:3 3:7"/>
    </vehicle>
    <vehicle id="278" depart="278.00">
        <route edges="7:3 3:1 1:0 0:2"/>
    </vehicle>
    <vehicle id="282" depart="282.00">
        <route edges="0:1 1:3 3:7"/>
    </vehicle>
    <vehicle id="283" depart="283.00">
        <route edges="7:3 3:1 1:0 0:2"/>
    </vehicle>
    <vehicle id="284" depart="284.00">
        <route edges="2:0 0:1"/>
    </vehicle>
    <vehicle id="286" depart="286.00">
        <route edges="2:0 0:1 1:3 3:7"/>
    </vehicle>
    <vehicle id="289" depart="289.00">
        <route edges="1:3 3:7"/>
    </vehicle>
    <vehicle id="291" depart="291.00">
        <route edges="0:1 1:3"/>
    </vehicle>
    <vehicle id="292" depart="292.00">
        <route edges="7:3 3:1 1:0 0:2"/>
    </vehicle>
    <vehicle id="295" depart="295.00">
        <route edges="2:0 0:1"/>
    </vehicle>
    <vehicle id="297" depart="297.00">
        <route edges="3:1"/>
    </vehicle>
    <vehicle id="298" depart="298.00">
        <route edges="2:0 0:1"/>
    </vehicle>
    <vehicle id="299" depart="299.00">
        <route edges="7:3 3:1 1:0 0:2"/>
    </vehicle>
    <vehicle id="300" depart="300.00">
        <route edges="7:3 3:1"/>
    </vehicle>
    <vehicle id="302" depart="302.00">
        <route edges="5:1 1:0 0:2"/>
    </vehicle>
    <vehicle id="308" depart="308.00">
        <route edges="5:1 1:0 0:2"/>
    </vehicle>
    <vehicle id="310" depart="310.00">
        <route edges="3:1 1:5 5:6"/>
    </vehicle>
    <vehicle id="313" depart="313.00">
        <route edges="7:3 3:1 1:0 0:2"/>
    </vehicle>
    <vehicle id="314" depart="314.00">
        <route edges="1:0"/>
    </vehicle>
    <vehicle id="317" depart="317.00">
        <route edges="3:1 1:0 0:2"/>
    </vehicle>
    <vehicle id="319" depart="319.00">
        <route edges="7:3 3:1 1:0"/>
    </vehicle>
    <vehicle id="321" depart="321.00">
        <route edges="7:3 3:1 1:0"/>
    </vehicle>
    <vehicle id="324" depart="324.00">
        <route edges="6:5 5:1 1:0 0:2"/>
    </vehicle>
    <vehicle id="325" depart="325.00">
        <route edges="3:1"/>
    </vehicle>
    <vehicle id="326" depart="326.00">
        <route edges="1:0"/>
    </vehicle>
    <vehicle id="327" depart="327.00">
        <route edges="6:5 5:1 1:0"/>
    </vehicle>
    <vehicle id="328" depart="328.00">
        <route edges="2:0 0:1"/>
    </vehicle>
    <vehicle id="329" depart="329.00">
        <route edges="1:3"/>
    </vehicle>
    <vehicle id="330" depart="330.00">
        <route edges="1:3"/>
    </vehicle>
    <vehicle id="333" depart="333.00">
        <route edges="2:0 0:1 1:5 5:6"/>
    </vehicle>
    <vehicle id="334" depart="334.00">
        <route edges="7:3 3:1 1:0 0:2"/>
    </vehicle>
    <vehicle id="336" depart="336.00">
        <route edges="2:0 0:1 1:5"/>
    </vehicle>
    <vehicle id="337" depart="337.00">
        <route edges="0:1 1:3 3:7"/>
    </vehicle>
    <vehicle id="341" depart="341.00">
        <route edges="6:5 5:1"/>
    </vehicle>
    <vehicle id="342" depart="342.00">
        <route edges="1:3 3:7"/>
    </vehicle>
    <vehicle id="344" depart="344.00">
        <route edges="3:1 1:5"/>
    </vehicle>
    <vehicle id="345" depart="345.00">
        <route edges="7:3 3:1 1:0 0:2"/>
    </vehicle>
    <vehicle id="346" depart="346.00">
        <route edges="7:3 3:1 1:0"/>
    </vehicle>
    <vehicle id="347" depart="347.00">
        <route edges="6:5 5:1 1:3 3:7"/>
    </vehicle>
    <vehicle id="350" depart="350.00">
        <route edges="6:5 5:1 1:0"/>
    </vehicle>
    <vehicle id="351" depart="351.00">
        <route edges="7:3 3:1 1:0 0:2"/>
    </vehicle>
    <vehicle id="360" depart="360.00">
        <route edges="6:5 5:1 1:0 0:2"/>
    </vehicle>
    <vehicle id="362" depart="362.00">
        <route edges="6:5 5:1 1:0 0:2"/>
    </vehicle>
    <vehicle id="368" depart="368.00">
        <route edges="0:1 1:3 3:7"/>
    </vehicle>
    <vehicle id="369" depart="369.00">
        <route edges="0:1 1:3 3:7"/>
    </vehicle>
    <vehicle id="373" depart="373.00">
        <route edges="0:1 1:3 3:7"/>
    </vehicle>
    <vehicle id="374" depart="374.00">
        <route edges="7:3 3:1 1:5"/>
    </vehicle>
    <vehicle id="379" depart="379.00">
        <route edges="7:3 3:1 1:0 0:2"/>
    </vehicle>
    <vehicle id="380" depart="380.00">
        <route edges="7:3 3:1 1:5 5:6"/>
    </vehicle>
    <vehicle id="381" depart="381.00">
        <route edges="2:0 0:1 1:5 5:6"/>
    </vehicle>
    <vehicle id="386" depart="386.00">
        <route edges="1:0 0:2"/>
    </vehicle>
    <vehicle id="388" depart="388.00">
        <route edges="2:0 0:1 1:5"/>
    </vehicle>
    <vehicle id="390" depart="390.00">
        <route edges="7:3 3:1 1:5 5:6"/>
    </vehicle>
    <vehicle id="391" depart="391.00">
        <route edges="2:0 0:1 1:5"/>
    </vehicle>
    <vehicle id="392" depart="392.00">
        <route edges="7:3 3:1 1:0 0:2"/>
    </vehicle>
    <vehicle id="394" depart="394.00">
        <route edges="7:3 3:1 1:5"/>
    </vehicle>
    <vehicle id="396" depart="396.00">
        <route edges="3:1 1:0"/>
    </vehicle>
    <vehicle id="397" depart="397.00">
        <route edges="0:1 1:3 3:7"/>
    </vehicle>
    <vehicle id="399" depart="399.00">
        <route edges="7:3 3:1 1:0 0:2"/>
    </vehicle>
    <vehicle id="400" depart="400.00">
        <route edges="0:1"/>
    </vehicle>
    <vehicle id="401" depart="401.00">
        <route edges="6:5 5:1 1:0"/>
    </vehicle>
    <vehicle id="403" depart="403.00">
        <route edges="3:1 1:5"/>
    </vehicle>
    <vehicle id="404" depart="404.00">
        <route edges="7:3 3:1 1:5 5:6"/>
    </vehicle>
    <vehicle id="408" depart="408.00">
        <route edges="5:1 1:3 3:7"/>
    </vehicle>
    <vehicle id="411" depart="411.00">
        <route edges="7:3 3:1 1:0 0:2"/>
    </vehicle>
    <vehicle id="413" depart="413.00">
        <route edges="1:3"/>
    </vehicle>
    <vehicle id="414" depart="414.00">
        <route edges="2:0 0:1 1:3"/>
    </vehicle>
    <vehicle id="420" depart="420.00">
        <route edges="7:3 3:1"/>
    </vehicle>
    <vehicle id="421" depart="421.00">
        <route edges="0:1 1:5 5:6"/>
    </vehicle>
    <vehicle id="423" depart="423.00">
        <route edges="7:3 3:1 1:0 0:2"/>
    </vehicle>
    <vehicle id="425" depart="425.00">
        <route edges="0:1 1:3 3:7"/>
    </vehicle>
    <vehicle id="429" depart="429.00">
        <route edges="7:3 3:1 1:0"/>
    </vehicle>
    <vehicle id="431" depart="431.00">
        <route edges="3:1 1:5"/>
    </vehicle>
    <vehicle id="434" depart="434.00">
        <route edges="0:1 1:5 5:6"/>
    </vehicle>
    <vehicle id="436" depart="436.00">
        <route edges="3:1 1:0"/>
    </vehicle>
    <vehicle id="437" depart="437.00">
        <route edges="2:0 0:1 1:5"/>
    </vehicle>
    <vehicle id="438" depart="438.00">
        <route edges="3:1 1:0"/>
    </vehicle>
    <vehicle id="439" depart="439.00">
        <route edges="7:3 3:1 1:0 0:2"/>
    </vehicle>
    <vehicle id="442" depart="442.00">
        <route edges="0:1 1:3"/>
    </vehicle>
    <vehicle id="443" depart="443.00">
        <route edges="7:3 3:1 1:0 0:2"/>
    </vehicle>
    <vehicle id="445" depart="445.00">
        <route edges="7:3 3:1 1:0"/>
    </vehicle>
    <vehicle id="446" depart="446.00">
        <route edges="7:3 3:1 1:5 5:6"/>
    </vehicle>
    <vehicle id="447" depart="447.00">
        <route edges="1:3 3:7"/>
    </vehicle>
    <vehicle id="449" depart="449.00">
        <route edges="0:1 1:3"/>
    </vehicle>
    <vehicle id="450" depart="450.00">
        <route edges="1:3 3:7"/>
    </vehicle>
    <vehicle id="451" depart="451.00">
        <route edges="1:0 0:2"/>
    </vehicle>
    <vehicle id="453" depart="453.00">
        <route edges="3:1 1:0"/>
    </vehicle>
    <vehicle id="454" depart="454.00">
        <route edges="2:0 0:1 1:3 3:7"/>
    </vehicle>
    <vehicle id="457" depart="457.00">
        <route edges="3:1 1:0 0:2"/>
    </vehicle>
    <vehicle id="458" depart="458.00">
        <route edges="0:1"/>
    </vehicle>
    <vehicle id="459" depart="459.00">
        <route edges="0:1 1:5 5:6"/>
    </vehicle>
    <vehicle id="460" depart="460.00">
        <route edges="3:1 1:5"/>
    </vehicle>
    <vehicle id="465" depart="465.00">
        <route edges="7:3 3:1 1:0 0:2"/>
    </vehicle>
    <vehicle id="466" depart="466.00">
        <route edges="5:1 1:3 3:7"/>
    </vehicle>
    <vehicle id="468" depart="468.00">
        <route edges="1:5"/>
    </vehicle>
    <vehicle id="471" depart="471.00">
        <route edges="2:0 0:1 1:3 3:7"/>
    </vehicle>
    <vehicle id="473" depart="473.00">
        <route edges="6:5 5:1 1:0 0:2"/>
    </vehicle>
    <vehicle id="475" depart="475.00">
        <route edges="6:5 5:1 1:3 3:7"/>
    </vehicle>
    <vehicle id="476" depart="476.00">
        <route edges="7:3 3:1 1:0 0:2"/>
    </vehicle>
    <vehicle id="478" depart="478.00">
        <route edges="5:1"/>
    </vehicle>
    <vehicle id="481" depart="481.00">
        <route edges="7:3 3:1"/>
    </vehicle>
    <vehicle id="482" depart="482.00">
        <route edges="7:3 3:1 1:0 0:2"/>
    </vehicle>
    <vehicle id="484" depart="484.00">
        <route edges="3:1 1:0"/>
    </vehicle>
    <vehicle id="485" depart="485.00">
        <route edges="6:5 5:1 1:0 0:2"/>
    </vehicle>
    <vehicle id="488" depart="488.00">
        <route edges="6:5 5:1 1:0 0:2"/>
    </vehicle>
    <vehicle id="489" depart="489.00">
        <route edges="3:1 1:5 5:6"/>
    </vehicle>
    <vehicle id="490" depart="490.00">
        <route edges="6:5 5:1 1:3 3:7"/>
    </vehicle>
    <vehicle id="493" depart="493.00">
        <route edges="7:3 3:1 1:0"/>
    </vehicle>
    <vehicle id="494" depart="494.00">
        <route edges="0:1"/>
    </vehicle>
    <vehicle id="496" depart="496.00">
        <route edges="3:1 1:0"/>
    </vehicle>
    <vehicle id="498" depart="498.00">
        <route edges="3:1 1:5"/>
    </vehicle>
    <vehicle id="500" depart="500.00">
        <route edges="7:3 3:1 1:5"/>
    </vehicle>
    <vehicle id="501" depart="501.00">
        <route edges="3:1 1:0"/>
    </vehicle>
    <vehicle id="503" depart="503.00">
        <route edges="7:3 3:1 1:0 0:2"/>
    </vehicle>
    <vehicle id="506" depart="506.00">
        <route edges="7:3 3:1 1:5 5:6"/>
    </vehicle>
    <vehicle id="507" depart="507.00">
        <route edges="6:5 5:1 1:0 0:2"/>
    </vehicle>
    <vehicle id="508" depart="508.00">
        <route edges="6:5 5:1 1:0 0:2"/>
    </vehicle>
    <vehicle id="509" depart="509.00">
        <route edges="3:1 1:0 0:2"/>
    </vehicle>
    <vehicle id="510" depart="510.00">
        <route edges="2:0 0:1 1:3 3:7"/>
    </vehicle>
    <vehicle id="511" depart="511.00">
        <route edges="6:5 5:1 1:0"/>
    </vehicle>
    <vehicle id="512" depart="512.00">
        <route edges="5:1 1:0 0:2"/>
    </vehicle>
    <vehicle id="515" depart="515.00">
        <route edges="6:5 5:1 1:0 0:2"/>
    </vehicle>
    <vehicle id="517" depart="517.00">
        <route edges="2:0 0:1 1:3"/>
    </vehicle>
    <vehicle id="523" depart="523.00">
        <route edges="0:1 1:5 5:6"/>
    </vehicle>
    <vehicle id="524" depart="524.00">
        <route edges="0:1 1:3 3:7"/>
    </vehicle>
    <vehicle id="525" depart="525.00">
        <route edges="7:3 3:1 1:5"/>
    </vehicle>
    <vehicle id="529" depart="529.00">
        <route edges="3:1 1:0 0:2"/>
    </vehicle>
    <vehicle id="532" depart="532.00">
        <route edges="0:1 1:3 3:7"/>
    </vehicle>
    <vehicle id="533" depart="533.00">
        <route edges="5:1 1:3"/>
    </vehicle>
    <vehicle id="534" depart="534.00">
        <route edges="7:3 3:1 1:0 0:2"/>
    </vehicle>
    <vehicle id="535" depart="535.00">
        <route edges="2:0 0:1"/>
    </vehicle>
    <vehicle id="537" depart="537.00">
        <route edges="2:0 0:1 1:5 5:6"/>
    </vehicle>
    <vehicle id="538" depart="538.00">
        <route edges="7:3 3:1 1:0 0:2"/>
    </vehicle>
    <vehicle id="539" depart="539.00">
        <route edges="6:5 5:1 1:3 3:7"/>
    </vehicle>
    <vehicle id="540" depart="540.00">
        <route edges="2:0 0:1 1:3"/>
    </vehicle>
    <vehicle id="541" depart="541.00">
        <route edges="7:3 3:1 1:0"/>
    </vehicle>
    <vehicle id="544" depart="544.00">
        <route edges="2:0 0:1"/>
    </vehicle>
    <vehicle id="546" depart="546.00">
        <route edges="7:3 3:1 1:0"/>
    </vehicle>
    <vehicle id="547" depart="547.00">
        <route edges="0:1 1:5 5:6"/>
    </vehicle>
    <vehicle id="550" depart="550.00">
        <route edges="2:0 0:1 1:5 5:6"/>
    </vehicle>
    <vehicle id="552" depart="552.00">
        <route edges="7:3 3:1 1:5 5:6"/>
    </vehicle>
    <vehicle id="556" depart="556.00">
        <route edges="5:1 1:3"/>
    </vehicle>
    <vehicle id="557" depart="557.00">
        <route edges="7:3 3:1 1:5"/>
    </vehicle>
    <vehicle id="558" depart="558.00">
        <route edges="7:3 3:1"/>
    </vehicle>
    <vehicle id="559" depart="559.00">
        <route edges="7:3 3:1 1:5"/>
    </vehicle>
    <vehicle id="560" depart="560.00">
        <route edges="6:5 5:1"/>
    </vehicle>
    <vehicle id="562" depart="562.00">
        <route edges="1:3 3:7"/>
    </vehicle>
    <vehicle id="563" depart="563.00">
        <route edges="6:5 5:1 1:3"/>
    </vehicle>
    <vehicle id="564" depart="564.00">
        <route edges="1:0 0:2"/>
    </vehicle>
    <vehicle id="565" depart="565.00">
        <route edges="2:0 0:1 1:5 5:6"/>
    </vehicle>
    <vehicle id="567" depart="567.00">
        <route edges="5:1 1:0 0:2"/>
    </vehicle>
    <vehicle id="572" depart="572.00">
        <route edges="2:0 0:1 1:3"/>
    </vehicle>
    <vehicle id="576" depart="576.00">
        <route edges="1:5 5:6"/>
    </vehicle>
    <vehicle id="579" depart="579.00">
        <route edges="1:3 3:7"/>
    </vehicle>
    <vehicle id="580" depart="580.00">
        <route edges="2:0 0:1"/>
    </vehicle>
    <vehicle id="581" depart="581.00">
        <route edges="3:1 1:0 0:2"/>
    </vehicle>
    <vehicle id="583" depart="583.00">
        <route edges="3:1 1:0 0:2"/>
    </vehicle>
    <vehicle id="585" depart="585.00">
        <route edges="7:3 3:1 1:0"/>
    </vehicle>
    <vehicle id="588" depart="588.00">
        <route edges="7:3 3:1 1:0 0:2"/>
    </vehicle>
    <vehicle id="591" depart="591.00">
        <route edges="2:0 0:1 1:5"/>
    </vehicle>
    <vehicle id="592" depart="592.00">
        <route edges="1:0 0:2"/>
    </vehicle>
    <vehicle id="593" depart="593.00">
        <route edges="7:3 3:1 1:0 0:2"/>
    </vehicle>
    <vehicle id="594" depart="594.00">
        <route edges="2:0 0:1 1:3"/>
    </vehicle>
    <vehicle id="595" depart="595.00">
        <route edges="7:3 3:1 1:5 5:6"/>
    </vehicle>
    <vehicle id="596" depart="596.00">
        <route edges="0:1 1:3 3:7"/>
    </vehicle>
    <vehicle id="597" depart="597.00">
        <route edges="1:5 5:6"/>
    </vehicle>
    <vehicle id="599" depart="599.00">
        <route edges="2:0 0:1 1:5"/>
    </vehicle>
    <vehicle id="603" depart="603.00">
        <route edges="6:5 5:1 1:3 3:7"/>
    </vehicle>
    <vehicle id="605" depart="605.00">
        <route edges="2:0 0:1 1:3 3:7"/>
    </vehicle>
    <vehicle id="606" depart="606.00">
        <route edges="0:1 1:3 3:7"/>
    </vehicle>
    <vehicle id="608" depart="608.00">
        <route edges="5:1 1:3 3:7"/>
    </vehicle>
    <vehicle id="609" depart="609.00">
        <route edges="6:5 5:1 1:3 3:7"/>
    </vehicle>
    <vehicle id="611" depart="611.00">
        <route edges="2:0 0:1 1:3 3:7"/>
    </vehicle>
    <vehicle id="613" depart="613.00">
        <route edges="5:1 1:0"/>
    </vehicle>
    <vehicle id="615" depart="615.00">
        <route edges="7:3 3:1 1:0 0:2"/>
    </vehicle>
    <vehicle id="618" depart="618.00">
        <route edges="6:5 5:1 1:3 3:7"/>
    </vehicle>
    <vehicle id="619" depart="619.00">
        <route edges="0:1 1:5 5:6"/>
    </vehicle>
    <vehicle id="620" depart="620.00">
        <route edges="7:3 3:1 1:5 5:6"/>
    </vehicle>
    <vehicle id="624" depart="624.00">
        <route edges="3:1 1:0 0:2"/>
    </vehicle>
    <vehicle id="627" depart="627.00">
        <route edges="1:3 3:7"/>
    </vehicle>
    <vehicle id="629" depart="629.00">
        <route edges="6:5 5:1 1:3 3:7"/>
    </vehicle>
    <vehicle id="631" depart="631.00">
        <route edges="6:5 5:1 1:0 0:2"/>
    </vehicle>
    <vehicle id="632" depart="632.00">
        <route edges="1:5 5:6"/>
    </vehicle>
    <vehicle id="637" depart="637.00">
        <route edges="2:0 0:1 1:3 3:7"/>
    </vehicle>
    <vehicle id="641" depart="641.00">
        <route edges="5:1 1:3 3:7"/>
    </vehicle>
    <vehicle id="643" depart="643.00">
        <route edges="2:0 0:1 1:3 3:7"/>
    </vehicle>
    <vehicle id="645" depart="645.00">
        <route edges="0:1 1:5"/>
    </vehicle>
    <vehicle id="646" depart="646.00">
        <route edges="6:5 5:1 1:3"/>
    </vehicle>
    <vehicle id="647" depart="647.00">
        <route edges="6:5 5:1 1:3"/>
    </vehicle>
    <vehicle id="648" depart="648.00">
        <route edges="2:0 0:1 1:3 3:7"/>
    </vehicle>
    <vehicle id="649" depart="649.00">
        <route edges="0:1 1:3"/>
    </vehicle>
    <vehicle id="651" depart="651.00">
        <route edges="7:3 3:1"/>
    </vehicle>
    <vehicle id="652" depart="652.00">
        <route edges="2:0 0:1 1:3"/>
    </vehicle>
    <vehicle id="654" depart="654.00">