<?xml version="1.0" encoding="UTF-8"?>

<!-- generated on Thu Feb 13 12:39:49 2014 by SUMO duarouter Version 0.18.0
<?xml version="1.0" encoding="UTF-8"?>

<configuration xmlns:xsi="http://www.w3.org/2001/XMLSchema-instance" xsi:noNamespaceSchemaLocation="http://sumo.sf.net/xsd/duarouterConfiguration.xsd">

    <input>
        <net-file value="simpleT.net.xml"/>
        <trip-files value="experimentos/simpleT.p1.0.2.trips.xml"/>
    </input>

    <output>
        <output-file value="experimentos/simpleT.p1.0.2.rou.xml"/>
    </output>

    <processing>
        <ignore-errors value="true"/>
    </processing>

    <random_number>
        <random value="true"/>
    </random_number>

</configuration>
-->

<routes xmlns:xsi="http://www.w3.org/2001/XMLSchema-instance" xsi:noNamespaceSchemaLocation="http://sumo.sf.net/xsd/routes_file.xsd">
    <vehicle id="0" depart="0.00">
        <route edges="1:3 3:7"/>
    </vehicle>
    <vehicle id="1" depart="1.00">
        <route edges="0:1 1:5 5:6"/>
    </vehicle>
    <vehicle id="4" depart="4.00">
        <route edges="7:3 3:1 1:0"/>
    </vehicle>
    <vehicle id="8" depart="8.00">
        <route edges="1:0 0:2"/>
    </vehicle>
    <vehicle id="11" depart="11.00">
        <route edges="7:3 3:1 1:5"/>
    </vehicle>
    <vehicle id="14" depart="14.00">
        <route edges="2:0 0:1 1:3"/>
    </vehicle>
    <vehicle id="15" depart="15.00">
        <route edges="1:0 0:2"/>
    </vehicle>
    <vehicle id="16" depart="16.00">
        <route edges="7:3 3:1 1:0 0:2"/>
    </vehicle>
    <vehicle id="17" depart="17.00">
        <route edges="6:5 5:1 1:0 0:2"/>
    </vehicle>
    <vehicle id="18" depart="18.00">
        <route edges="0:1"/>
    </vehicle>
    <vehicle id="19" depart="19.00">
        <route edges="3:1 1:5"/>
    </vehicle>
    <vehicle id="21" depart="21.00">
        <route edges="2:0 0:1"/>
    </vehicle>
    <vehicle id="22" depart="22.00">
        <route edges="5:1 1:0 0:2"/>
    </vehicle>
    <vehicle id="23" depart="23.00">
        <route edges="2:0 0:1"/>
    </vehicle>
    <vehicle id="24" depart="24.00">
        <route edges="7:3 3:1"/>
    </vehicle>
    <vehicle id="25" depart="25.00">
        <route edges="2:0 0:1 1:3 3:7"/>
    </vehicle>
    <vehicle id="27" depart="27.00">
        <route edges="7:3 3:1 1:0 0:2"/>
    </vehicle>
    <vehicle id="29" depart="29.00">
        <route edges="7:3 3:1 1:0 0:2"/>
    </vehicle>
    <vehicle id="31" depart="31.00">
        <route edges="1:3 3:7"/>
    </vehicle>
    <vehicle id="32" depart="32.00">
        <route edges="2:0 0:1 1:5 5:6"/>
    </vehicle>
    <vehicle id="36" depart="36.00">
        <route edges="2:0 0:1 1:3"/>
    </vehicle>
    <vehicle id="40" depart="40.00">
        <route edges="7:3 3:1 1:0"/>
    </vehicle>
    <vehicle id="45" depart="45.00">
        <route edges="6:5 5:1 1:0 0:2"/>
    </vehicle>
    <vehicle id="46" depart="46.00">
        <route edges="3:1 1:0 0:2"/>
    </vehicle>
    <vehicle id="49" depart="49.00">
        <route edges="3:1 1:0"/>
    </vehicle>
    <vehicle id="50" depart="50.00">
        <route edges="1:3"/>
    </vehicle>
    <vehicle id="51" depart="51.00">
        <route edges="2:0 0:1 1:3 3:7"/>
    </vehicle>
    <vehicle id="59" depart="59.00">
        <route edges="3:1 1:0"/>
    </vehicle>
    <vehicle id="60" depart="60.00">
        <route edges="2:0 0:1 1:3 3:7"/>
    </vehicle>
    <vehicle id="62" depart="62.00">
        <route edges="2:0 0:1 1:3 3:7"/>
    </vehicle>
    <vehicle id="64" depart="64.00">
        <route edges="7:3 3:1"/>
    </vehicle>
    <vehicle id="67" depart="67.00">
        <route edges="6:5 5:1"/>
    </vehicle>
    <vehicle id="71" depart="71.00">
        <route edges="7:3 3:1 1:5 5:6"/>
    </vehicle>
    <vehicle id="72" depart="72.00">
        <route edges="7:3 3:1 1:0 0:2"/>
    </vehicle>
    <vehicle id="73" depart="73.00">
        <route edges="1:0"/>
    </vehicle>
    <vehicle id="75" depart="75.00">
        <route edges="1:3"/>
    </vehicle>
    <vehicle id="76" depart="76.00">
        <route edges="7:3 3:1 1:5 5:6"/>
    </vehicle>
    <vehicle id="79" depart="79.00">
        <route edges="7:3 3:1 1:0 0:2"/>
    </vehicle>
    <vehicle id="80" depart="80.00">
        <route edges="2:0 0:1 1:5 5:6"/>
    </vehicle>
    <vehicle id="81" depart="81.00">
        <route edges="5:1 1:0 0:2"/>
    </vehicle>
    <vehicle id="82" depart="82.00">
        <route edges="3:1 1:0 0:2"/>
    </vehicle>
    <vehicle id="83" depart="83.00">
        <route edges="5:1 1:3 3:7"/>
    </vehicle>
    <vehicle id="85" depart="85.00">
        <route edges="2:0 0:1 1:3 3:7"/>
    </vehicle>
    <vehicle id="86" depart="86.00">
        <route edges="2:0 0:1 1:3"/>
    </vehicle>
    <vehicle id="88" depart="88.00">
        <route edges="3:1 1:5 5:6"/>
    </vehicle>
    <vehicle id="89" depart="89.00">
        <route edges="1:3 3:7"/>
    </vehicle>
    <vehicle id="90" depart="90.00">
        <route edges="6:5 5:1 1:0 0:2"/>
    </vehicle>
    <vehicle id="92" depart="92.00">
        <route edges="1:5 5:6"/>
    </vehicle>
    <vehicle id="93" depart="93.00">
        <route edges="6:5 5:1 1:0 0:2"/>
    </vehicle>
    <vehicle id="94" depart="94.00">
        <route edges="0:1 1:3 3:7"/>
    </vehicle>
    <vehicle id="97" depart="97.00">
        <route edges="1:3 3:7"/>
    </vehicle>
    <vehicle id="98" depart="98.00">
        <route edges="7:3 3:1 1:0 0:2"/>
    </vehicle>
    <vehicle id="102" depart="102.00">
        <route edges="1:0 0:2"/>
    </vehicle>
    <vehicle id="104" depart="104.00">
        <route edges="0:1 1:3 3:7"/>
    </vehicle>
    <vehicle id="109" depart="109.00">
        <route edges="3:1 1:0 0:2"/>
    </vehicle>
    <vehicle id="110" depart="110.00">
        <route edges="7:3 3:1 1:0 0:2"/>
    </vehicle>
    <vehicle id="111" depart="111.00">
        <route edges="1:0 0:2"/>
    </vehicle>
    <vehicle id="114" depart="114.00">
        <route edges="3:1 1:0 0:2"/>
    </vehicle>
    <vehicle id="115" depart="115.00">
        <route edges="5:1 1:3 3:7"/>
    </vehicle>
    <vehicle id="116" depart="116.00">
        <route edges="1:3"/>
    </vehicle>
    <vehicle id="118" depart="118.00">
        <route edges="2:0 0:1 1:5"/>
    </vehicle>
    <vehicle id="120" depart="120.00">
        <route edges="3:1 1:0 0:2"/>
    </vehicle>
    <vehicle id="121" depart="121.00">
        <route edges="7:3 3:1 1:5 5:6"/>
    </vehicle>
    <vehicle id="122" depart="122.00">
        <route edges="0:1 1:5 5:6"/>
    </vehicle>
    <vehicle id="123" depart="123.00">
        <route edges="0:1 1:3 3:7"/>
    </vehicle>
    <vehicle id="128" depart="128.00">
        <route edges="6:5 5:1 1:0 0:2"/>
    </vehicle>
    <vehicle id="129" depart="129.00">
        <route edges="1:0"/>
    </vehicle>
    <vehicle id="131" depart="131.00">
        <route edges="0:1"/>
    </vehicle>
    <vehicle id="132" depart="132.00">
        <route edges="2:0 0:1 1:3 3:7"/>
    </vehicle>
    <vehicle id="133" depart="133.00">
        <route edges="6:5 5:1 1:3 3:7"/>
    </vehicle>
    <vehicle id="134" depart="134.00">
        <route edges="3:1 1:5 5:6"/>
    </vehicle>
    <vehicle id="136" depart="136.00">
        <route edges="5:1 1:3 3:7"/>
    </vehicle>
    <vehicle id="138" depart="138.00">
        <route edges="5:1 1:0 0:2"/>
    </vehicle>
    <vehicle id="139" depart="139.00">
        <route edges="7:3 3:1 1:0 0:2"/>
    </vehicle>
    <vehicle id="142" depart="142.00">
        <route edges="7:3 3:1 1:0 0:2"/>
    </vehicle>
    <vehicle id="145" depart="145.00">
        <route edges="7:3 3:1 1:0 0:2"/>
    </vehicle>
    <vehicle id="147" depart="147.00">
        <route edges="2:0 0:1 1:3 3:7"/>
    </vehicle>
    <vehicle id="151" depart="151.00">
        <route edges="5:1"/>
    </vehicle>
    <vehicle id="153" depart="153.00">
        <route edges="7:3 3:1 1:5"/>
    </vehicle>
    <vehicle id="155" depart="155.00">
        <route edges="1:3 3:7"/>
    </vehicle>
    <vehicle id="157" depart="157.00">
        <route edges="3:1 1:5 5:6"/>
    </vehicle>
    <vehicle id="158" depart="158.00">
        <route edges="6:5 5:1"/>
    </vehicle>
    <vehicle id="160" depart="160.00">
        <route edges="6:5 5:1 1:0 0:2"/>
    </vehicle>
    <vehicle id="161" depart="161.00">
        <route edges="7:3 3:1"/>
    </vehicle>
    <vehicle id="162" depart="162.00">
        <route edges="7:3 3:1 1:0 0:2"/>
    </vehicle>
    <vehicle id="163" depart="163.00">
        <route edges="7:3 3:1"/>
    </vehicle>
    <vehicle id="165" depart="165.00">
        <route edges="1:0 0:2"/>
    </vehicle>
    <vehicle id="168" depart="168.00">
        <route edges="7:3 3:1 1:0 0:2"/>
    </vehicle>
    <vehicle id="172" depart="172.00">
        <route edges="0:1 1:3"/>
    </vehicle>
    <vehicle id="173" depart="173.00">
        <route edges="0:1"/>
    </vehicle>
    <vehicle id="175" depart="175.00">
        <route edges="7:3 3:1 1:0"/>
    </vehicle>
    <vehicle id="177" depart="177.00">
        <route edges="2:0 0:1 1:3 3:7"/>
    </vehicle>
    <vehicle id="179" depart="179.00">
        <route edges="7:3 3:1 1:5 5:6"/>
    </vehicle>
    <vehicle id="181" depart="181.00">
        <route edges="0:1 1:3 3:7"/>
    </vehicle>
    <vehicle id="182" depart="182.00">
        <route edges="0:1 1:3 3:7"/>
    </vehicle>
    <vehicle id="184" depart="184.00">
        <route edges="7:3 3:1"/>
    </vehicle>
    <vehicle id="186" depart="186.00">
        <route edges="0:1 1:3 3:7"/>
    </vehicle>
    <vehicle id="187" depart="187.00">
        <route edges="1:3"/>
    </vehicle>
    <vehicle id="188" depart="188.00">
        <route edges="3:1 1:0 0:2"/>
    </vehicle>
    <vehicle id="191" depart="191.00">
        <route edges="2:0 0:1 1:3 3:7"/>
    </vehicle>
    <vehicle id="193" depart="193.00">
        <route edges="0:1"/>
    </vehicle>
    <vehicle id="194" depart="194.00">
        <route edges="0:1 1:5 5:6"/>
    </vehicle>
    <vehicle id="197" depart="197.00">
        <route edges="7:3 3:1 1:5 5:6"/>
    </vehicle>
    <vehicle id="198" depart="198.00">
        <route edges="2:0 0:1 1:3"/>
    </vehicle>
    <vehicle id="201" depart="201.00">
        <route edges="3:1"/>
    </vehicle>
    <vehicle id="203" depart="203.00">
        <route edges="0:1 1:3 3:7"/>
    </vehicle>
    <vehicle id="204" depart="204.00">
        <route edges="1:3"/>
    </vehicle>
    <vehicle id="206" depart="206.00">
        <route edges="6:5 5:1 1:3 3:7"/>
    </vehicle>
    <vehicle id="207" depart="207.00">
        <route edges="7:3 3:1 1:5"/>
    </vehicle>
    <vehicle id="210" depart="210.00">
        <route edges="2:0 0:1 1:3"/>
    </vehicle>
    <vehicle id="211" depart="211.00">
        <route edges="7:3 3:1 1:0"/>
    </vehicle>
    <vehicle id="213" depart="213.00">
        <route edges="6:5 5:1 1:3 3:7"/>
    </vehicle>
    <vehicle id="216" depart="216.00">
        <route edges="0:1 1:3 3:7"/>
    </vehicle>
    <vehicle id="217" depart="217.00">
        <route edges="3:1 1:0 0:2"/>
    </vehicle>
    <vehicle id="218" depart="218.00">
        <route edges="2:0 0:1 1:3 3:7"/>
    </vehicle>
    <vehicle id="219" depart="219.00">
        <route edges="1:0"/>
    </vehicle>
    <vehicle id="220" depart="220.00">
        <route edges="7:3 3:1 1:0"/>
    </vehicle>
    <vehicle id="222" depart="222.00">
        <route edges="2:0 0:1 1:5 5:6"/>
    </vehicle>
    <vehicle id="223" depart="223.00">
        <route edges="7:3 3:1"/>
    </vehicle>
    <vehicle id="224" depart="224.00">
        <route edges="5:1 1:0"/>
    </vehicle>
    <vehicle id="225" depart="225.00">
        <route edges="6:5 5:1"/>
    </vehicle>
    <vehicle id="226" depart="226.00">
        <route edges="0:1"/>
    </vehicle>
    <vehicle id="227" depart="227.00">
        <route edges="5:1 1:0"/>
    </vehicle>
    <vehicle id="234" depart="234.00">
        <route edges="7:3 3:1 1:0"/>
    </vehicle>
    <vehicle id="235" depart="235.00">
        <route edges="0:1 1:3 3:7"/>
    </vehicle>
    <vehicle id="236" depart="236.00">
        <route edges="7:3 3:1 1:0 0:2"/>
    </vehicle>
    <vehicle id="240" depart="240.00">
        <route edges="0:1"/>
    </vehicle>
    <vehicle id="242" depart="242.00">
        <route edges="7:3 3:1 1:0 0:2"/>
    </vehicle>
    <vehicle id="247" depart="247.00">
        <route edges="2:0 0:1"/>
    </vehicle>
    <vehicle id="249" depart="249.00">
        <route edges="2:0 0:1 1:3"/>
    </vehicle>
    <vehicle id="250" depart="250.00">
        <route edges="2:0 0:1 1:3 3:7"/>
    </vehicle>
    <vehicle id="251" depart="251.00">
        <route edges="7:3 3:1 1:0"/>
    </vehicle>
    <vehicle id="253" depart="253.00">
        <route edges="7:3 3:1"/>
    </vehicle>
    <vehicle id="258" depart="258.00">
        <route edges="2:0 0:1 1:3 3:7"/>
    </vehicle>
    <vehicle id="260" depart="260.00">
        <route edges="7:3 3:1"/>
    </vehicle>
    <vehicle id="261" depart="261.00">
        <route edges="1:0 0:2"/>
    </vehicle>
    <vehicle id="262" depart="262.00">
        <route edges="6:5 5:1 1:3 3:7"/>
    </vehicle>
    <vehicle id="264" depart="264.00">
        <route edges="7:3 3:1 1:0 0:2"/>
    </vehicle>
    <vehicle id="265" depart="265.00">
        <route edges="7:3 3:1 1:0 0:2"/>
    </vehicle>
    <vehicle id="268" depart="268.00">
        <route edges="2:0 0:1"/>
    </vehicle>
    <vehicle id="272" depart="272.00">
        <route edges="5:1 1:0"/>
    </vehicle>
    <vehicle id="273" depart="273.00">
        <route edges="7:3 3:1 1:5 5:6"/>
    </vehicle>
    <vehicle id="274" depart="274.00">
        <route edges="1:3 3:7"/>
    </vehicle>
    <vehicle id="278" depart="278.00">
        <route edges="2:0 0:1 1:3 3:7"/>
    </vehicle>
    <vehicle id="282" depart="282.00">
        <route edges="1:3 3:7"/>
    </vehicle>
    <vehicle id="284" depart="284.00">
        <route edges="1:0 0:2"/>
    </vehicle>
    <vehicle id="287" depart="287.00">
        <route edges="7:3 3:1 1:0 0:2"/>
    </vehicle>
    <vehicle id="288" depart="288.00">
        <route edges="6:5 5:1 1:3 3:7"/>
    </vehicle>
    <vehicle id="292" depart="292.00">
        <route edges="1:0 0:2"/>
    </vehicle>
    <vehicle id="294" depart="294.00">
        <route edges="7:3 3:1 1:0"/>
    </vehicle>
    <vehicle id="297" depart="297.00">
        <route edges="7:3 3:1 1:0"/>
    </vehicle>
    <vehicle id="298" depart="298.00">
        <route edges="0:1 1:5 5:6"/>
    </vehicle>
    <vehicle id="299" depart="299.00">
        <route edges="3:1 1:5 5:6"/>
    </vehicle>
    <vehicle id="302" depart="302.00">
        <route edges="2:0 0:1 1:3"/>
    </vehicle>
    <vehicle id="303" depart="303.00">
        <route edges="0:1 1:3 3:7"/>
    </vehicle>
    <vehicle id="305" depart="305.00">
        <route edges="5:1 1:0 0:2"/>
    </vehicle>
    <vehicle id="306" depart="306.00">
        <route edges="7:3 3:1 1:0"/>
    </vehicle>
    <vehicle id="308" depart="308.00">
        <route edges="1:3"/>
    </vehicle>
    <vehicle id="309" depart="309.00">
        <route edges="3:1 1:0 0:2"/>
    </vehicle>
    <vehicle id="311" depart="311.00">
        <route edges="5:1"/>
    </vehicle>
    <vehicle id="312" depart="312.00">
        <route edges="6:5 5:1 1:3"/>
    </vehicle>
    <vehicle id="322" depart="322.00">
        <route edges="2:0 0:1"/>
    </vehicle>
    <vehicle id="323" depart="323.00">
        <route edges="3:1 1:0 0:2"/>
    </vehicle>
    <vehicle id="324" depart="324.00">
        <route edges="7:3 3:1 1:5"/>
    </vehicle>
    <vehicle id="325" depart="325.00">
        <route edges="5:1 1:0"/>
    </vehicle>
    <vehicle id="326" depart="326.00">
        <route edges="5:1 1:0 0:2"/>
    </vehicle>
    <vehicle id="327" depart="327.00">
        <route edges="1:0 0:2"/>
    </vehicle>
    <vehicle id="328" depart="328.00">
        <route edges="7:3 3:1 1:0"/>
    </vehicle>
    <vehicle id="329" depart="329.00">
        <route edges="2:0 0:1 1:3 3:7"/>
    </vehicle>
    <vehicle id="331" depart="331.00">
        <route edges="2:0 0:1 1:5"/>
    </vehicle>
    <vehicle id="335" depart="335.00">
        <route edges="2:0 0:1 1:3 3:7"/>
    </vehicle>
    <vehicle id="339" depart="339.00">
        <route edges="7:3 3:1 1:0 0:2"/>
    </vehicle>
    <vehicle id="340" depart="340.00">
        <route edges="0:1 1:3 3:7"/>
    </vehicle>
    <vehicle id="343" depart="343.00">
        <route edges="3:1 1:0"/>
    </vehicle>
    <vehicle id="344" depart="344.00">
        <route edges="6:5 5:1 1:3"/>
    </vehicle>
    <vehicle id="345" depart="345.00">
        <route edges="7:3 3:1 1:0"/>
    </vehicle>
    <vehicle id="346" depart="346.00">
        <route edges="5:1 1:0 0:2"/>
    </vehicle>
    <vehicle id="350" depart="350.00">
        <route edges="2:0 0:1 1:3 3:7"/>
    </vehicle>
    <vehicle id="351" depart="351.00">
        <route edges="3:1"/>
    </vehicle>
    <vehicle id="353" depart="353.00">
        <route edges="3:1"/>
    </vehicle>
    <vehicle id="354" depart="354.00">
        <route edges="3:1 1:0 0:2"/>
    </vehicle>
    <vehicle id="355" depart="355.00">
        <route edges="3:1"/>
    </vehicle>
    <vehicle id="357" depart="357.00">
        <route edges="7:3 3:1"/>
    </vehicle>
    <vehicle id="358" depart="358.00">
        <route edges="5:1 1:3"/>
    </vehicle>
    <vehicle id="359" depart="359.00">
        <route edges="3:1 1:0 0:2"/>
    </vehicle>
    <vehicle id="360" depart="360.00">
        <route edges="7:3 3:1 1:0 0:2"/>
    </vehicle>
    <vehicle id="362" depart="362.00">
        <route edges="2:0 0:1 1:5 5:6"/>
    </vehicle>
    <vehicle id="364" depart="364.00">
        <route edges="0:1 1:3"/>
    </vehicle>
    <vehicle id="366" depart="366.00">
        <route edges="0:1 1:3"/>
    </vehicle>
    <vehicle id="367" depart="367.00">
        <route edges="7:3 3:1"/>
    </vehicle>
    <vehicle id="368" depart="368.00">
        <route edges="1:3"/>
    </vehicle>
    <vehicle id="370" depart="370.00">
        <route edges="1:0 0:2"/>
    </vehicle>
    <vehicle id="372" depart="372.00">
        <route edges="7:3 3:1 1:0"/>
    </vehicle>
    <vehicle id="376" depart="376.00">
        <route edges="2:0 0:1 1:5"/>
    </vehicle>
    <vehicle id="377" depart="377.00">
        <route edges="7:3 3:1"/>
    </vehicle>
    <vehicle id="378" depart="378.00">
        <route edges="1:0 0:2"/>
    </vehicle>
    <vehicle id="379" depart="379.00">
        <route edges="0:1 1:3 3:7"/>
    </vehicle>
    <vehicle id="383" depart="383.00">
        <route edges="7:3 3:1 1:0 0:2"/>
    </vehicle>
    <vehicle id="386" depart="386.00">
        <route edges="2:0 0:1 1:3 3:7"/>
    </vehicle>
    <vehicle id="389" depart="389.00">
        <route edges="7:3 3:1 1:0 0:2"/>
    </vehicle>
    <vehicle id="391" depart="391.00">
        <route edges="3:1 1:0"/>
    </vehicle>
    <vehicle id="394" depart="394.00">
        <route edges="2:0 0:1 1:3 3:7"/>
    </vehicle>
    <vehicle id="395" depart="395.00">
        <route edges="7:3 3:1 1:0 0:2"/>
    </vehicle>
    <vehicle id="396" depart="396.00">
        <route edges="2:0 0:1 1:3 3:7"/>
    </vehicle>
    <vehicle id="397" depart="397.00">
        <route edges="7:3 3:1 1:5 5:6"/>
    </vehicle>
    <vehicle id="400" depart="400.00">
        <route edges="1:0 0:2"/>
    </vehicle>
    <vehicle id="403" depart="403.00">
        <route edges="6:5 5:1 1:0"/>
    </vehicle>
    <vehicle id="406" depart="406.00">
        <route edges="0:1 1:5 5:6"/>
    </vehicle>
    <vehicle id="416" depart="416.00">
        <route edges="5:1 1:3"/>
    </vehicle>
    <vehicle id="417" depart="417.00">
        <route edges="7:3 3:1 1:0 0:2"/>
    </vehicle>
    <vehicle id="420" depart="420.00">
        <route edges="1:0 0:2"/>
    </vehicle>
    <vehicle id="423" depart="423.00">
        <route edges="5:1 1:0"/>
    </vehicle>
    <vehicle id="424" depart="424.00">
        <route edges="3:1 1:0 0:2"/>
    </vehicle>
    <vehicle id="427" depart="427.00">
        <route edges="7:3 3:1 1:5 5:6"/>
    </vehicle>
    <vehicle id="429" depart="429.00">
        <route edges="2:0 0:1 1:3 3:7"/>
    </vehicle>
    <vehicle id="431" depart="431.00">
        <route edges="2:0 0:1 1:5 5:6"/>
    </vehicle>
    <vehicle id="432" depart="432.00">
        <route edges="0:1 1:3 3:7"/>
    </vehicle>
    <vehicle id="433" depart="433.00">
        <route edges="6:5 5:1 1:3 3:7"/>
    </vehicle>
    <vehicle id="434" depart="434.00">
        <route edges="6:5 5:1 1:0 0:2"/>
    </vehicle>
    <vehicle id="435" depart="435.00">
        <route edges="1:3 3:7"/>
    </vehicle>
    <vehicle id="436" depart="436.00">
        <route edges="5:1 1:3 3:7"/>
    </vehicle>
    <vehicle id="439" depart="439.00">
        <route edges="7:3 3:1 1:0 0:2"/>
    </vehicle>
    <vehicle id="442" depart="442.00">
        <route edges="1:0 0:2"/>
    </vehicle>
    <vehicle id="443" depart="443.00">
        <route edges="1:3 3:7"/>
    </vehicle>
    <vehicle id="445" depart="445.00">
        <route edges="6:5 5:1 1:3 3:7"/>
    </vehicle>
    <vehicle id="446" depart="446.00">
        <route edges="6:5 5:1 1:3 3:7"/>
    </vehicle>
    <vehicle id="448" depart="448.00">
        <route edges="1:0"/>
    </vehicle>
    <vehicle id="450" depart="450.00">
        <route edges="1:0"/>
    </vehicle>
    <vehicle id="453" depart="453.00">
        <route edges="3:1 1:5 5:6"/>
    </vehicle>
    <vehicle id="456" depart="456.00">
        <route edges="2:0 0:1 1:5 5:6"/>
    </vehicle>
    <vehicle id="457" depart="457.00">
        <route edges="1:0 0:2"/>
    </vehicle>
    <vehicle id="458" depart="458.00">
        <route edges="1:3 3:7"/>
    </vehicle>
    <vehicle id="462" depart="462.00">
        <route edges="6:5 5:1 1:0 0:2"/>
    </vehicle>
    <vehicle id="463" depart="463.00">
        <route edges="7:3 3:1 1:0 0:2"/>
    </vehicle>
    <vehicle id="465" depart="465.00">
        <route edges="7:3 3:1 1:0 0:2"/>
    </vehicle>
    <vehicle id="466" depart="466.00">
        <route edges="7:3 3:1"/>
    </vehicle>
    <vehicle id="467" depart="467.00">
        <route edges="3:1 1:0 0:2"/>
    </vehicle>
    <vehicle id="468" depart="468.00">
        <route edges="7:3 3:1 1:0 0:2"/>
    </vehicle>
    <vehicle id="469" depart="469.00">
        <route edges="2:0 0:1"/>
    </vehicle>
    <vehicle id="471" depart="471.00">
        <route edges="7:3 3:1"/>
    </vehicle>
    <vehicle id="474" depart="474.00">
        <route edges="7:3 3:1 1:0 0:2"/>
    </vehicle>
    <vehicle id="476" depart="476.00">
        <route edges="1:0"/>
    </vehicle>
    <vehicle id="477" depart="477.00">
        <route edges="6:5 5:1 1:3 3:7"/>
    </vehicle>
    <vehicle id="479" depart="479.00">
        <route edges="5:1 1:3 3:7"/>
    </vehicle>
    <vehicle id="481" depart="481.00">
        <route edges="1:3 3:7"/>
    </vehicle>
    <vehicle id="485" depart="485.00">
        <route edges="7:3 3:1 1:0 0:2"/>
    </vehicle>
    <vehicle id="486" depart="486.00">
        <route edges="1:0"/>
    </vehicle>
    <vehicle id="487" depart="487.00">
        <route edges="2:0 0:1 1:3"/>
    </vehicle>
    <vehicle id="489" depart="489.00">
        <route edges="0:1 1:5 5:6"/>
    </vehicle>
    <vehicle id="491" depart="491.00">
        <route edges="6:5 5:1 1:3"/>
    </vehicle>
    <vehicle id="492" depart="492.00">
        <route edges="6:5 5:1 1:3 3:7"/>
    </vehicle>
    <vehicle id="493" depart="493.00">
        <route edges="6:5 5:1"/>
    </vehicle>
    <vehicle id="494" depart="494.00">
        <route edges="2:0 0:1 1:3 3:7"/>
    </vehicle>
    <vehicle id="495" depart="495.00">
        <route edges="0:1 1:5 5:6"/>
    </vehicle>
    <vehicle id="496" depart="496.00">
        <route edges="2:0 0:1 1:3 3:7"/>
    </vehicle>
    <vehicle id="498" depart="498.00">
        <route edges="2:0 0:1 1:5"/>
    </vehicle>
    <vehicle id="500" depart="500.00">
        <route edges="3:1 1:5"/>
    </vehicle>
    <vehicle id="502" depart="502.00">
        <route edges="0:1 1:3 3:7"/>
    </vehicle>
    <vehicle id="504" depart="504.00">
        <route edges="0:1 1:3 3:7"/>
    </vehicle>
    <vehicle id="505" depart="505.00">
        <route edges="2:0 0:1 1:5 5:6"/>
    </vehicle>
    <vehicle id="506" depart="506.00">
        <route edges="1:3 3:7"/>
    </vehicle>
    <vehicle id="507" depart="507.00">
        <route edges="2:0 0:1 1:5"/>
    </vehicle>
    <vehicle id="509" depart="509.00">
        <route edges="7:3 3:1 1:0"/>
    </vehicle>
    <vehicle id="511" depart="511.00">
        <route edges="7:3 3:1 1:5 5:6"/>
    </vehicle>
    <vehicle id="516" depart="516.00">
        <route edges="3:1 1:5 5:6"/>
    </vehicle>
    <vehicle id="518" depart="518.00">
        <route edges="3:1 1:0 0:2"/>
    </vehicle>
    <vehicle id="520" depart="520.00">
        <route edges="7:3 3:1 1:0"/>
    </vehicle>
    <vehicle id="521" depart="521.00">
        <route edges="6:5 5:1 1:3 3:7"/>
    </vehicle>
    <vehicle id="522" depart="522.00">
        <route edges="1:0 0:2"/>
    </vehicle>
    <vehicle id="524" depart="524.00">
        <route edges="7:3 3:1 1:0 0:2"/>
    </vehicle>
    <vehicle id="529" depart="529.00">
        <route edges="3:1 1:5 5:6"/>
    </vehicle>
    <vehicle id="530" depart="530.00">
        <route edges="2:0 0:1 1:3 3:7"/>
    </vehicle>
    <vehicle id="532" depart="532.00">
        <route edges="5:1 1:0 0:2"/>
    </vehicle>
    <vehicle id="538" depart="538.00">
        <route edges="2:0 0:1 1:3"/>
    </vehicle>
    <vehicle id="540" depart="540.00">
        <route edges="3:1 1:0 0:2"/>
    </vehicle>
    <vehicle id="542" depart="542.00">
        <route edges="3:1"/>
    </vehicle>
    <vehicle id="543" depart="543.00">
        <route edges="3:1"/>
    </vehicle>
    <vehicle id="545" depart="545.00">
        <route edges="1:0 0:2"/>
    </vehicle>
    <vehicle id="546" depart="546.00">
        <route edges="1:3"/>
    </vehicle>
    <vehicle id="548" depart="548.00">
        <route edges="7:3 3:1 1:0"/>
    </vehicle>
    <vehicle id="551" depart="551.00">
        <route edges="2:0 0:1 1:3 3:7"/>
    </vehicle>
    <vehicle id="552" depart="552.00">
        <route edges="1:0 0:2"/>
    </vehicle>
    <vehicle id="554" depart="554.00">
        <route edges="2:0 0:1"/>
    </vehicle>
    <vehicle id="555" depart="555.00">
        <route edges="2:0 0:1 1:5 5:6"/>
    </vehicle>
    <vehicle id="556" depart="556.00">
        <route edges="7:3 3:1"/>
    </vehicle>
    <vehicle id="557" depart="557.00">
        <route edges="0:1 1:3 3:7"/>
    </vehicle>
    <vehicle id="561" depart="561.00">
        <route edges="2:0 0:1 1:3 3:7"/>
    </vehicle>
    <vehicle id="562" depart="562.00">
        <route edges="2:0 0:1 1:3"/>
    </vehicle>
    <vehicle id="566" depart="566.00">
        <route edges="6:5 5:1 1:3"/>
    </vehicle>
    <vehicle id="569" depart="569.00">
        <route edges="7:3 3:1 1:0"/>
    </vehicle>
    <vehicle id="570" depart="570.00">
        <route edges="2:0 0:1 1:3 3:7"/>
    </vehicle>
    <vehicle id="572" depart="572.00">
        <route edges="6:5 5:1 1:3"/>
    </vehicle>
    <vehicle id="576" depart="576.00">
        <route edges="2:0 0:1 1:5 5:6"/>
    </vehicle>
    <vehicle id="578" depart="578.00">
        <route edges="7:3 3:1"/>
    </vehicle>
    <vehicle id="580" depart="580.00">
        <route edges="3:1 1:0"/>
    </vehicle>
    <vehicle id="581" depart="581.00">
        <route edges="1:0"/>
    </vehicle>
    <vehicle id="582" depart="582.00">
        <route edges="6:5 5:1"/>
    </vehicle>
    <vehicle id="583" depart="583.00">
        <route edges="7:3 3:1 1:0 0:2"/>
    </vehicle>
    <vehicle id="585" depart="585.00">
        <route edges="7:3 3:1 1:0"/>
    </vehicle>
    <vehicle id="586" depart="586.00">
        <route edges="2:0 0:1 1:3 3:7"/>
    </vehicle>
    <vehicle id="593" depart="593.00">
        <route edges="0:1 1:3 3:7"/>
    </vehicle>
    <vehicle id="595" depart="595.00">
        <route edges="7:3 3:1"/>
    </vehicle>
    <vehicle id="600" depart="600.00">
        <route edges="2:0 0:1 1:5 5:6"/>
    </vehicle>
    <vehicle id="601" depart="601.00">
        <route edges="0:1 1:3"/>
    </vehicle>
    <vehicle id="603" depart="603.00">
        <route edges="2:0 0:1"/>
    </vehicle>
    <vehicle id="607" depart="607.00">
        <route edges="1:3 3:7"/>
    </vehicle>
    <vehicle id="608" depart="608.00">
        <route edges="7:3 3:1"/>
    </vehicle>
    <vehicle id="609" depart="609.00">
        <route edges="5:1 1:0 0:2"/>
    </vehicle>
    <vehicle id="611" depart="611.00">
        <route edges="1:3"/>
    </vehicle>
    <vehicle id="613" depart="613.00">
        <route edges="3:1 1:0"/>
    </vehicle>
    <vehicle id="615" depart="615.00">
        <route edges="1:0"/>
    </vehicle>
    <vehicle id="616" depart="616.00">
        <route edges="2:0 0:1"/>
    </vehicle>
    <vehicle id="617" depart="617.00">
        <route edges="7:3 3:1"/>
    </vehicle>
    <vehicle id="619" depart="619.00">
        <route edges="0:1 1:5 5:6"/>
    </vehicle>
    <vehicle id="620" depart="620.00">
        <route edges="5:1 1:0"/>
    </vehicle>
    <vehicle id="621" depart="621.00">
        <route edges="7:3 3:1 1:0"/>
    </vehicle>
    <vehicle id="622" depart="622.00">
        <route edges="3:1 1:0"/>
    </vehicle>
    <vehicle id="623" depart="623.00">
        <route edges="2:0 0:1 1:3 3:7"/>
    </vehicle>
    <vehicle id="624" depart="624.00">
        <route edges="6:5 5:1 1:0 0:2"/>
    </vehicle>
    <vehicle id="626" depart="626.00">
        <route edges="7:3 3:1 1:0 0:2"/>
    </vehicle>
    <vehicle id="627" depart="627.00">
        <route edges="0:1 1:3 3:7"/>
    </vehicle>
    <vehicle id="628" depart="628.00">
        <route edges="6:5 5:1 1:3"/>
    </vehicle>
    <vehicle id="630" depart="630.00">
        <route edges="7:3 3:1 1:0 0:2"/>
    </vehicle>
    <vehicle id="631" depart="631.00">