<?xml version="1.0" encoding="UTF-8"?>

<!-- generated on Thu Feb 13 12:38:59 2014 by SUMO duarouter Version 0.18.0
<?xml version="1.0" encoding="UTF-8"?>

<configuration xmlns:xsi="http://www.w3.org/2001/XMLSchema-instance" xsi:noNamespaceSchemaLocation="http://sumo.sf.net/xsd/duarouterConfiguration.xsd">

    <input>
        <net-file value="simpleT.net.xml"/>
        <trip-files value="experimentos/simpleT.p0.4.2.trips.xml"/>
    </input>

    <output>
        <output-file value="experimentos/simpleT.p0.4.2.rou.xml"/>
    </output>

    <processing>
        <ignore-errors value="true"/>
    </processing>

    <random_number>
        <random value="true"/>
    </random_number>

</configuration>
-->

<routes xmlns:xsi="http://www.w3.org/2001/XMLSchema-instance" xsi:noNamespaceSchemaLocation="http://sumo.sf.net/xsd/routes_file.xsd">
    <vehicle id="0" depart="0.00">
        <route edges="2:0 0:1 1:5 5:6"/>
    </vehicle>
    <vehicle id="1" depart="0.40">
        <route edges="0:1 1:3 3:7"/>
    </vehicle>
    <vehicle id="2" depart="0.80">
        <route edges="5:1 1:0"/>
    </vehicle>
    <vehicle id="4" depart="1.60">
        <route edges="1:0 0:2"/>
    </vehicle>
    <vehicle id="6" depart="2.40">
        <route edges="0:1 1:3"/>
    </vehicle>
    <vehicle id="11" depart="4.40">
        <route edges="7:3 3:1"/>
    </vehicle>
    <vehicle id="12" depart="4.80">
        <route edges="7:3 3:1 1:0 0:2"/>
    </vehicle>
    <vehicle id="13" depart="5.20">
        <route edges="7:3 3:1 1:0 0:2"/>
    </vehicle>
    <vehicle id="14" depart="5.60">
        <route edges="7:3 3:1 1:0 0:2"/>
    </vehicle>
    <vehicle id="16" depart="6.40">
        <route edges="2:0 0:1"/>
    </vehicle>
    <vehicle id="17" depart="6.80">
        <route edges="0:1 1:5 5:6"/>
    </vehicle>
    <vehicle id="21" depart="8.40">
        <route edges="1:0 0:2"/>
    </vehicle>
    <vehicle id="25" depart="10.00">
        <route edges="7:3 3:1 1:5"/>
    </vehicle>
    <vehicle id="28" depart="11.20">
        <route edges="5:1 1:0 0:2"/>
    </vehicle>
    <vehicle id="29" depart="11.60">
        <route edges="6:5 5:1 1:3"/>
    </vehicle>
    <vehicle id="30" depart="12.00">
        <route edges="5:1 1:3 3:7"/>
    </vehicle>
    <vehicle id="32" depart="12.80">
        <route edges="3:1 1:0 0:2"/>
    </vehicle>
    <vehicle id="33" depart="13.20">
        <route edges="1:0"/>
    </vehicle>
    <vehicle id="37" depart="14.80">
        <route edges="2:0 0:1 1:5 5:6"/>
    </vehicle>
    <vehicle id="38" depart="15.20">
        <route edges="2:0 0:1 1:3"/>
    </vehicle>
    <vehicle id="40" depart="16.00">
        <route edges="2:0 0:1"/>
    </vehicle>
    <vehicle id="41" depart="16.40">
        <route edges="7:3 3:1 1:0 0:2"/>
    </vehicle>
    <vehicle id="42" depart="16.80">
        <route edges="2:0 0:1 1:3 3:7"/>
    </vehicle>
    <vehicle id="43" depart="17.20">
        <route edges="7:3 3:1 1:5 5:6"/>
    </vehicle>
    <vehicle id="44" depart="17.60">
        <route edges="1:3"/>
    </vehicle>
    <vehicle id="46" depart="18.40">
        <route edges="3:1 1:0 0:2"/>
    </vehicle>
    <vehicle id="49" depart="19.60">
        <route edges="2:0 0:1 1:3"/>
    </vehicle>
    <vehicle id="50" depart="20.00">
        <route edges="3:1 1:0"/>
    </vehicle>
    <vehicle id="51" depart="20.40">
        <route edges="3:1"/>
    </vehicle>
    <vehicle id="54" depart="21.60">
        <route edges="7:3 3:1 1:0"/>
    </vehicle>
    <vehicle id="55" depart="22.00">
        <route edges="3:1 1:0"/>
    </vehicle>
    <vehicle id="57" depart="22.80">
        <route edges="7:3 3:1 1:5 5:6"/>
    </vehicle>
    <vehicle id="64" depart="25.60">
        <route edges="1:0 0:2"/>
    </vehicle>
    <vehicle id="66" depart="26.40">
        <route edges="5:1 1:3 3:7"/>
    </vehicle>
    <vehicle id="67" depart="26.80">
        <route edges="2:0 0:1 1:3"/>
    </vehicle>
    <vehicle id="68" depart="27.20">
        <route edges="3:1"/>
    </vehicle>
    <vehicle id="73" depart="29.20">
        <route edges="7:3 3:1 1:0 0:2"/>
    </vehicle>
    <vehicle id="74" depart="29.60">
        <route edges="2:0 0:1"/>
    </vehicle>
    <vehicle id="75" depart="30.00">
        <route edges="0:1 1:3"/>
    </vehicle>
    <vehicle id="77" depart="30.80">
        <route edges="2:0 0:1 1:3"/>
    </vehicle>
    <vehicle id="78" depart="31.20">
        <route edges="3:1 1:5 5:6"/>
    </vehicle>
    <vehicle id="79" depart="31.60">
        <route edges="2:0 0:1 1:3"/>
    </vehicle>
    <vehicle id="80" depart="32.00">
        <route edges="2:0 0:1"/>
    </vehicle>
    <vehicle id="83" depart="33.20">
        <route edges="6:5 5:1 1:3 3:7"/>
    </vehicle>
    <vehicle id="86" depart="34.40">
        <route edges="2:0 0:1 1:5 5:6"/>
    </vehicle>
    <vehicle id="88" depart="35.20">
        <route edges="7:3 3:1"/>
    </vehicle>
    <vehicle id="90" depart="36.00">
        <route edges="0:1"/>
    </vehicle>
    <vehicle id="95" depart="38.00">
        <route edges="5:1 1:3"/>
    </vehicle>
    <vehicle id="96" depart="38.40">
        <route edges="7:3 3:1 1:0 0:2"/>
    </vehicle>
    <vehicle id="98" depart="39.20">
        <route edges="2:0 0:1 1:3 3:7"/>
    </vehicle>
    <vehicle id="99" depart="39.60">
        <route edges="3:1 1:0 0:2"/>
    </vehicle>
    <vehicle id="100" depart="40.00">
        <route edges="7:3 3:1 1:0 0:2"/>
    </vehicle>
    <vehicle id="102" depart="40.80">
        <route edges="6:5 5:1 1:0 0:2"/>
    </vehicle>
    <vehicle id="106" depart="42.40">
        <route edges="6:5 5:1 1:3"/>
    </vehicle>
    <vehicle id="110" depart="44.00">
        <route edges="5:1 1:0"/>
    </vehicle>
    <vehicle id="111" depart="44.40">
        <route edges="7:3 3:1 1:5 5:6"/>
    </vehicle>
    <vehicle id="113" depart="45.20">
        <route edges="6:5 5:1 1:0 0:2"/>
    </vehicle>
    <vehicle id="117" depart="46.80">
        <route edges="7:3 3:1 1:0 0:2"/>
    </vehicle>
    <vehicle id="118" depart="47.20">
        <route edges="7:3 3:1"/>
    </vehicle>
    <vehicle id="121" depart="48.40">
        <route edges="2:0 0:1 1:3"/>
    </vehicle>
    <vehicle id="125" depart="50.00">
        <route edges="3:1 1:0 0:2"/>
    </vehicle>
    <vehicle id="126" depart="50.40">
        <route edges="1:0 0:2"/>
    </vehicle>
    <vehicle id="127" depart="50.80">
        <route edges="3:1"/>
    </vehicle>
    <vehicle id="132" depart="52.80">
        <route edges="7:3 3:1 1:5"/>
    </vehicle>
    <vehicle id="133" depart="53.20">
        <route edges="2:0 0:1 1:5"/>
    </vehicle>
    <vehicle id="134" depart="53.60">
        <route edges="7:3 3:1 1:0"/>
    </vehicle>
    <vehicle id="135" depart="54.00">
        <route edges="2:0 0:1 1:3 3:7"/>
    </vehicle>
    <vehicle id="137" depart="54.80">
        <route edges="0:1 1:3 3:7"/>
    </vehicle>
    <vehicle id="139" depart="55.60">
        <route edges="6:5 5:1 1:0 0:2"/>
    </vehicle>
    <vehicle id="140" depart="56.00">
        <route edges="7:3 3:1 1:5 5:6"/>
    </vehicle>
    <vehicle id="142" depart="56.80">
        <route edges="7:3 3:1"/>
    </vehicle>
    <vehicle id="144" depart="57.60">
        <route edges="6:5 5:1 1:0"/>
    </vehicle>
    <vehicle id="145" depart="58.00">
        <route edges="2:0 0:1 1:5 5:6"/>
    </vehicle>
    <vehicle id="147" depart="58.80">
        <route edges="1:3"/>
    </vehicle>
    <vehicle id="149" depart="59.60">
        <route edges="0:1"/>
    </vehicle>
    <vehicle id="155" depart="62.00">
        <route edges="7:3 3:1 1:0 0:2"/>
    </vehicle>
    <vehicle id="158" depart="63.20">
        <route edges="0:1"/>
    </vehicle>
    <vehicle id="160" depart="64.00">
        <route edges="6:5 5:1 1:0 0:2"/>
    </vehicle>
    <vehicle id="161" depart="64.40">
        <route edges="0:1 1:3 3:7"/>
    </vehicle>
    <vehicle id="163" depart="65.20">
        <route edges="7:3 3:1 1:0 0:2"/>
    </vehicle>
    <vehicle id="164" depart="65.60">
        <route edges="7:3 3:1"/>
    </vehicle>
    <vehicle id="165" depart="66.00">
        <route edges="2:0 0:1 1:3 3:7"/>
    </vehicle>
    <vehicle id="166" depart="66.40">
        <route edges="1:3"/>
    </vehicle>
    <vehicle id="167" depart="66.80">
        <route edges="6:5 5:1 1:0 0:2"/>
    </vehicle>
    <vehicle id="168" depart="67.20">
        <route edges="2:0 0:1 1:3"/>
    </vehicle>
    <vehicle id="170" depart="68.00">
        <route edges="3:1"/>
    </vehicle>
    <vehicle id="171" depart="68.40">
        <route edges="1:3 3:7"/>
    </vehicle>
    <vehicle id="172" depart="68.80">
        <route edges="2:0 0:1"/>
    </vehicle>
    <vehicle id="173" depart="69.20">
        <route edges="7:3 3:1 1:0"/>
    </vehicle>
    <vehicle id="174" depart="69.60">
        <route edges="0:1 1:3 3:7"/>
    </vehicle>
    <vehicle id="176" depart="70.40">
        <route edges="0:1 1:3 3:7"/>
    </vehicle>
    <vehicle id="177" depart="70.80">
        <route edges="2:0 0:1 1:3 3:7"/>
    </vehicle>
    <vehicle id="179" depart="71.60">
        <route edges="3:1 1:0 0:2"/>
    </vehicle>
    <vehicle id="180" depart="72.00">
        <route edges="2:0 0:1 1:3 3:7"/>
    </vehicle>
    <vehicle id="184" depart="73.60">
        <route edges="6:5 5:1 1:0 0:2"/>
    </vehicle>
    <vehicle id="187" depart="74.80">
        <route edges="7:3 3:1"/>
    </vehicle>
    <vehicle id="188" depart="75.20">
        <route edges="2:0 0:1 1:5"/>
    </vehicle>
    <vehicle id="189" depart="75.60">
        <route edges="2:0 0:1 1:3 3:7"/>
    </vehicle>
    <vehicle id="196" depart="78.40">
        <route edges="2:0 0:1 1:3"/>
    </vehicle>
    <vehicle id="197" depart="78.80">
        <route edges="0:1 1:3"/>
    </vehicle>
    <vehicle id="199" depart="79.60">
        <route edges="3:1 1:5"/>
    </vehicle>
    <vehicle id="200" depart="80.00">
        <route edges="0:1"/>
    </vehicle>
    <vehicle id="202" depart="80.80">
        <route edges="0:1 1:5 5:6"/>
    </vehicle>
    <vehicle id="208" depart="83.20">
        <route edges="7:3 3:1 1:0 0:2"/>
    </vehicle>
    <vehicle id="209" depart="83.60">
        <route edges="2:0 0:1"/>
    </vehicle>
    <vehicle id="210" depart="84.00">
        <route edges="6:5 5:1 1:3 3:7"/>
    </vehicle>
    <vehicle id="211" depart="84.40">
        <route edges="0:1 1:3 3:7"/>
    </vehicle>
    <vehicle id="212" depart="84.80">
        <route edges="7:3 3:1 1:0 0:2"/>
    </vehicle>
    <vehicle id="215" depart="86.00">
        <route edges="1:0"/>
    </vehicle>
    <vehicle id="219" depart="87.60">
        <route edges="2:0 0:1"/>
    </vehicle>
    <vehicle id="220" depart="88.00">
        <route edges="7:3 3:1 1:0"/>
    </vehicle>
    <vehicle id="221" depart="88.40">
        <route edges="0:1 1:3"/>
    </vehicle>
    <vehicle id="222" depart="88.80">
        <route edges="1:0 0:2"/>
    </vehicle>
    <vehicle id="223" depart="89.20">
        <route edges="2:0 0:1 1:3 3:7"/>
    </vehicle>
    <vehicle id="225" depart="90.00">
        <route edges="0:1 1:3 3:7"/>
    </vehicle>
    <vehicle id="227" depart="90.80">
        <route edges="1:3 3:7"/>
    </vehicle>
    <vehicle id="229" depart="91.60">
        <route edges="7:3 3:1 1:5 5:6"/>
    </vehicle>
    <vehicle id="232" depart="92.80">
        <route edges="3:1 1:5 5:6"/>
    </vehicle>
    <vehicle id="233" depart="93.20">
        <route edges="6:5 5:1 1:0 0:2"/>
    </vehicle>
    <vehicle id="234" depart="93.60">
        <route edges="7:3 3:1 1:0 0:2"/>
    </vehicle>
    <vehicle id="237" depart="94.80">
        <route edges="1:0 0:2"/>
    </vehicle>
    <vehicle id="241" depart="96.40">
        <route edges="2:0 0:1 1:3 3:7"/>
    </vehicle>
    <vehicle id="243" depart="97.20">
        <route edges="7:3 3:1 1:0 0:2"/>
    </vehicle>
    <vehicle id="246" depart="98.40">
        <route edges="3:1 1:0 0:2"/>
    </vehicle>
    <vehicle id="249" depart="99.60">
        <route edges="6:5 5:1 1:3"/>
    </vehicle>
    <vehicle id="251" depart="100.40">
        <route edges="1:0 0:2"/>
    </vehicle>
    <vehicle id="253" depart="101.20">
        <route edges="5:1 1:3"/>
    </vehicle>
    <vehicle id="257" depart="102.80">
        <route edges="6:5 5:1 1:3"/>
    </vehicle>
    <vehicle id="259" depart="103.60">
        <route edges="2:0 0:1 1:3"/>
    </vehicle>
    <vehicle id="264" depart="105.60">
        <route edges="7:3 3:1 1:5 5:6"/>
    </vehicle>
    <vehicle id="266" depart="106.40">
        <route edges="0:1"/>
    </vehicle>
    <vehicle id="267" depart="106.80">
        <route edges="0:1 1:5"/>
    </vehicle>
    <vehicle id="268" depart="107.20">
        <route edges="3:1 1:0 0:2"/>
    </vehicle>
    <vehicle id="270" depart="108.00">
        <route edges="7:3 3:1"/>
    </vehicle>
    <vehicle id="273" depart="109.20">
        <route edges="7:3 3:1"/>
    </vehicle>
    <vehicle id="274" depart="109.60">
        <route edges="6:5 5:1 1:3"/>
    </vehicle>
    <vehicle id="275" depart="110.00">
        <route edges="7:3 3:1 1:0 0:2"/>
    </vehicle>
    <vehicle id="277" depart="110.80">
        <route edges="6:5 5:1 1:0 0:2"/>
    </vehicle>
    <vehicle id="278" depart="111.20">
        <route edges="6:5 5:1 1:0 0:2"/>
    </vehicle>
    <vehicle id="280" depart="112.00">
        <route edges="0:1 1:3 3:7"/>
    </vehicle>
    <vehicle id="281" depart="112.40">
        <route edges="6:5 5:1 1:3 3:7"/>
    </vehicle>
    <vehicle id="282" depart="112.80">
        <route edges="0:1"/>
    </vehicle>
    <vehicle id="283" depart="113.20">
        <route edges="6:5 5:1 1:0 0:2"/>
    </vehicle>
    <vehicle id="284" depart="113.60">
        <route edges="2:0 0:1"/>
    </vehicle>
    <vehicle id="285" depart="114.00">
        <route edges="1:3 3:7"/>
    </vehicle>
    <vehicle id="286" depart="114.40">
        <route edges="1:5 5:6"/>
    </vehicle>
    <vehicle id="287" depart="114.80">
        <route edges="2:0 0:1 1:5 5:6"/>
    </vehicle>
    <vehicle id="288" depart="115.20">
        <route edges="2:0 0:1 1:5"/>
    </vehicle>
    <vehicle id="289" depart="115.60">
        <route edges="7:3 3:1 1:0 0:2"/>
    </vehicle>
    <vehicle id="291" depart="116.40">
        <route edges="2:0 0:1 1:3 3:7"/>
    </vehicle>
    <vehicle id="293" depart="117.20">
        <route edges="2:0 0:1 1:5 5:6"/>
    </vehicle>
    <vehicle id="296" depart="118.40">
        <route edges="2:0 0:1 1:3"/>
    </vehicle>
    <vehicle id="300" depart="120.00">
        <route edges="6:5 5:1 1:0"/>
    </vehicle>
    <vehicle id="301" depart="120.40">
        <route edges="0:1 1:3 3:7"/>
    </vehicle>
    <vehicle id="304" depart="121.60">
        <route edges="3:1 1:0"/>
    </vehicle>
    <vehicle id="305" depart="122.00">
        <route edges="6:5 5:1 1:0 0:2"/>
    </vehicle>
    <vehicle id="307" depart="122.80">
        <route edges="1:5"/>
    </vehicle>
    <vehicle id="310" depart="124.00">
        <route edges="2:0 0:1 1:5 5:6"/>
    </vehicle>
    <vehicle id="311" depart="124.40">
        <route edges="2:0 0:1 1:3 3:7"/>
    </vehicle>
    <vehicle id="312" depart="124.80">
        <route edges="1:0"/>
    </vehicle>
    <vehicle id="314" depart="125.60">
        <route edges="1:5 5:6"/>
    </vehicle>
    <vehicle id="316" depart="126.40">
        <route edges="2:0 0:1 1:3 3:7"/>
    </vehicle>
    <vehicle id="322" depart="128.80">
        <route edges="1:3 3:7"/>
    </vehicle>
    <vehicle id="323" depart="129.20">
        <route edges="1:3"/>
    </vehicle>
    <vehicle id="328" depart="131.20">
        <route edges="7:3 3:1 1:0 0:2"/>
    </vehicle>
    <vehicle id="333" depart="133.20">
        <route edges="2:0 0:1 1:5"/>
    </vehicle>
    <vehicle id="334" depart="133.60">
        <route edges="1:3 3:7"/>
    </vehicle>
    <vehicle id="335" depart="134.00">
        <route edges="6:5 5:1 1:3"/>
    </vehicle>
    <vehicle id="336" depart="134.40">
        <route edges="2:0 0:1 1:3 3:7"/>
    </vehicle>
    <vehicle id="340" depart="136.00">
        <route edges="7:3 3:1 1:5 5:6"/>
    </vehicle>
    <vehicle id="341" depart="136.40">
        <route edges="6:5 5:1 1:3"/>
    </vehicle>
    <vehicle id="344" depart="137.60">
        <route edges="2:0 0:1"/>
    </vehicle>
    <vehicle id="345" depart="138.00">
        <route edges="6:5 5:1 1:0 0:2"/>
    </vehicle>
    <vehicle id="347" depart="138.80">
        <route edges="7:3 3:1 1:0 0:2"/>
    </vehicle>
    <vehicle id="348" depart="139.20">
        <route edges="5:1 1:0 0:2"/>
    </vehicle>
    <vehicle id="350" depart="140.00">
        <route edges="6:5 5:1 1:3"/>
    </vehicle>
    <vehicle id="352" depart="140.80">
        <route edges="1:0"/>
    </vehicle>
    <vehicle id="354" depart="141.60">
        <route edges="2:0 0:1 1:5 5:6"/>
    </vehicle>
    <vehicle id="355" depart="142.00">
        <route edges="0:1 1:3"/>
    </vehicle>
    <vehicle id="356" depart="142.40">
        <route edges="2:0 0:1 1:3"/>
    </vehicle>
    <vehicle id="357" depart="142.80">
        <route edges="5:1 1:3 3:7"/>
    </vehicle>
    <vehicle id="358" depart="143.20">
        <route edges="5:1 1:0"/>
    </vehicle>
    <vehicle id="359" depart="143.60">
        <route edges="2:0 0:1 1:3 3:7"/>
    </vehicle>
    <vehicle id="360" depart="144.00">
        <route edges="3:1 1:0 0:2"/>
    </vehicle>
    <vehicle id="362" depart="144.80">
        <route edges="2:0 0:1"/>
    </vehicle>
    <vehicle id="364" depart="145.60">
        <route edges="7:3 3:1 1:0 0:2"/>
    </vehicle>
    <vehicle id="365" depart="146.00">
        <route edges="0:1"/>
    </vehicle>
    <vehicle id="366" depart="146.40">
        <route edges="6:5 5:1 1:3 3:7"/>
    </vehicle>
    <vehicle id="369" depart="147.60">
        <route edges="7:3 3:1 1:0 0:2"/>
    </vehicle>
    <vehicle id="370" depart="148.00">
        <route edges="7:3 3:1 1:0"/>
    </vehicle>
    <vehicle id="372" depart="148.80">
        <route edges="1:0"/>
    </vehicle>
    <vehicle id="374" depart="149.60">
        <route edges="1:0 0:2"/>
    </vehicle>
    <vehicle id="376" depart="150.40">
        <route edges="3:1 1:0 0:2"/>
    </vehicle>
    <vehicle id="377" depart="150.80">
        <route edges="6:5 5:1 1:0 0:2"/>
    </vehicle>
    <vehicle id="378" depart="151.20">
        <route edges="1:0 0:2"/>
    </vehicle>
    <vehicle id="379" depart="151.60">
        <route edges="0:1 1:3"/>
    </vehicle>
    <vehicle id="380" depart="152.00">
        <route edges="2:0 0:1 1:3 3:7"/>
    </vehicle>
    <vehicle id="382" depart="152.80">
        <route edges="7:3 3:1 1:0 0:2"/>
    </vehicle>
    <vehicle id="383" depart="153.20">
        <route edges="7:3 3:1"/>
    </vehicle>
    <vehicle id="387" depart="154.80">
        <route edges="2:0 0:1 1:5 5:6"/>
    </vehicle>
    <vehicle id="388" depart="155.20">
        <route edges="5:1 1:0 0:2"/>
    </vehicle>
    <vehicle id="389" depart="155.60">
        <route edges="2:0 0:1 1:3 3:7"/>
    </vehicle>
    <vehicle id="390" depart="156.00">
        <route edges="3:1 1:0 0:2"/>
    </vehicle>
    <vehicle id="391" depart="156.40">
        <route edges="7:3 3:1 1:0 0:2"/>
    </vehicle>
    <vehicle id="395" depart="158.00">
        <route edges="7:3 3:1 1:0"/>
    </vehicle>
    <vehicle id="396" depart="158.40">
        <route edges="7:3 3:1 1:5"/>
    </vehicle>
    <vehicle id="397" depart="158.80">
        <route edges="2:0 0:1 1:3 3:7"/>
    </vehicle>
    <vehicle id="398" depart="159.20">
        <route edges="7:3 3:1"/>
    </vehicle>
    <vehicle id="400" depart="160.00">
        <route edges="2:0 0:1 1:3 3:7"/>
    </vehicle>
    <vehicle id="401" depart="160.40">
        <route edges="7:3 3:1 1:0 0:2"/>
    </vehicle>
    <vehicle id="402" depart="160.80">
        <route edges="7:3 3:1 1:0"/>
    </vehicle>
    <vehicle id="403" depart="161.20">
        <route edges="3:1 1:0 0:2"/>
    </vehicle>
    <vehicle id="404" depart="161.60">
        <route edges="5:1 1:0"/>
    </vehicle>
    <vehicle id="405" depart="162.00">
        <route edges="3:1 1:0 0:2"/>
    </vehicle>
    <vehicle id="406" depart="162.40">
        <route edges="7:3 3:1 1:5 5:6"/>
    </vehicle>
    <vehicle id="411" depart="164.40">
        <route edges="3:1 1:5 5:6"/>
    </vehicle>
    <vehicle id="412" depart="164.80">
        <route edges="2:0 0:1 1:3 3:7"/>
    </vehicle>
    <vehicle id="414" depart="165.60">
        <route edges="6:5 5:1 1:0 0:2"/>
    </vehicle>
    <vehicle id="415" depart="166.00">
        <route edges="2:0 0:1"/>
    </vehicle>
    <vehicle id="418" depart="167.20">
        <route edges="6:5 5:1 1:3 3:7"/>
    </vehicle>
    <vehicle id="419" depart="167.60">
        <route edges="7:3 3:1 1:5 5:6"/>
    </vehicle>
    <vehicle id="421" depart="168.40">
        <route edges="7:3 3:1 1:0"/>
    </vehicle>
    <vehicle id="422" depart="168.80">
        <route edges="7:3 3:1 1:0 0:2"/>
    </vehicle>
    <vehicle id="424" depart="169.60">
        <route edges="7:3 3:1"/>
    </vehicle>
    <vehicle id="429" depart="171.60">
        <route edges="7:3 3:1 1:0 0:2"/>
    </vehicle>
    <vehicle id="431" depart="172.40">
        <route edges="7:3 3:1 1:0 0:2"/>
    </vehicle>
    <vehicle id="437" depart="174.80">
        <route edges="2:0 0:1 1:3 3:7"/>
    </vehicle>
    <vehicle id="438" depart="175.20">
        <route edges="5:1 1:0 0:2"/>
    </vehicle>
    <vehicle id="440" depart="176.00">
        <route edges="6:5 5:1 1:3 3:7"/>
    </vehicle>
    <vehicle id="441" depart="176.40">
        <route edges="7:3 3:1"/>
    </vehicle>
    <vehicle id="443" depart="177.20">
        <route edges="0:1 1:3 3:7"/>
    </vehicle>
    <vehicle id="444" depart="177.60">
        <route edges="2:0 0:1 1:3 3:7"/>
    </vehicle>
    <vehicle id="446" depart="178.40">
        <route edges="2:0 0:1 1:3 3:7"/>
    </vehicle>
    <vehicle id="452" depart="180.80">
        <route edges="7:3 3:1 1:0 0:2"/>
    </vehicle>
    <vehicle id="454" depart="181.60">
        <route edges="0:1 1:3"/>
    </vehicle>
    <vehicle id="456" depart="182.40">
        <route edges="3:1 1:0 0:2"/>
    </vehicle>
    <vehicle id="457" depart="182.80">
        <route edges="7:3 3:1 1:0 0:2"/>
    </vehicle>
    <vehicle id="461" depart="184.40">
        <route edges="2:0 0:1"/>
    </vehicle>
    <vehicle id="464" depart="185.60">
        <route edges="7:3 3:1 1:0"/>
    </vehicle>
    <vehicle id="465" depart="186.00">
        <route edges="2:0 0:1 1:5 5:6"/>
    </vehicle>
    <vehicle id="466" depart="186.40">
        <route edges="7:3 3:1 1:0 0:2"/>
    </vehicle>
    <vehicle id="470" depart="188.00">
        <route edges="7:3 3:1 1:5"/>
    </vehicle>
    <vehicle id="471" depart="188.40">
        <route edges="0:1"/>
    </vehicle>
    <vehicle id="475" depart="190.00">
        <route edges="1:0"/>
    </vehicle>
    <vehicle id="476" depart="190.40">
        <route edges="2:0 0:1 1:3 3:7"/>
    </vehicle>
    <vehicle id="477" depart="190.80">
        <route edges="2:0 0:1"/>
    </vehicle>
    <vehicle id="484" depart="193.60">
        <route edges="7:3 3:1 1:0"/>
    </vehicle>
    <vehicle id="485" depart="194.00">
        <route edges="2:0 0:1 1:3"/>
    </vehicle>
    <vehicle id="486" depart="194.40">
        <route edges="1:3 3:7"/>
    </vehicle>
    <vehicle id="489" depart="195.60">
        <route edges="7:3 3:1"/>
    </vehicle>
    <vehicle id="490" depart="196.00">
        <route edges="6:5 5:1 1:0"/>
    </vehicle>
    <vehicle id="491" depart="196.40">
        <route edges="2:0 0:1 1:3 3:7"/>
    </vehicle>
    <vehicle id="492" depart="196.80">
        <route edges="2:0 0:1 1:3 3:7"/>
    </vehicle>
    <vehicle id="493" depart="197.20">
        <route edges="2:0 0:1"/>
    </vehicle>
    <vehicle id="494" depart="197.60">
        <route edges="7:3 3:1 1:0 0:2"/>
    </vehicle>
    <vehicle id="495" depart="198.00">
        <route edges="7:3 3:1 1:0 0:2"/>
    </vehicle>
    <vehicle id="500" depart="200.00">
        <route edges="0:1 1:3 3:7"/>
    </vehicle>
    <vehicle id="504" depart="201.60">
        <route edges="2:0 0:1"/>
    </vehicle>
    <vehicle id="507" depart="202.80">
        <route edges="5:1 1:3 3:7"/>
    </vehicle>
    <vehicle id="508" depart="203.20">
        <route edges="1:3"/>
    </vehicle>
    <vehicle id="513" depart="205.20">
        <route edges="6:5 5:1 1:0"/>
    </vehicle>
    <vehicle id="514" depart="205.60">
        <route edges="7:3 3:1 1:0 0:2"/>
    </vehicle>
    <vehicle id="515" depart="206.00">
        <route edges="7:3 3:1 1:0 0:2"/>
    </vehicle>
    <vehicle id="520" depart="208.00">
        <route edges="2:0 0:1 1:3 3:7"/>
    </vehicle>
    <vehicle id="521" depart="208.40">
        <route edges="1:0"/>
    </vehicle>
    <vehicle id="522" depart="208.80">
        <route edges="5:1 1:3 3:7"/>
    </vehicle>
    <vehicle id="524" depart="209.60">
        <route edges="3:1 1:0 0:2"/>
    </vehicle>
    <vehicle id="525" depart="210.00">
        <route edges="1:0"/>
    </vehicle>
    <vehicle id="527" depart="210.80">
        <route edges="1:3"/>
    </vehicle>
    <vehicle id="528" depart="211.20">
        <route edges="1:0 0:2"/>
    </vehicle>
    <vehicle id="529" depart="211.60">
        <route edges="2:0 0:1 1:3 3:7"/>
    </vehicle>
    <vehicle id="534" depart="213.60">
        <route edges="2:0 0:1 1:3"/>
    </vehicle>
    <vehicle id="538" depart="215.20">
        <route edges="0:1 1:5"/>
    </vehicle>
    <vehicle id="539" depart="215.60">
        <route edges="6:5 5:1"/>
    </vehicle>
    <vehicle id="545" depart="218.00">
        <route edges="6:5 5:1 1:0 0:2"/>
    </vehicle>
    <vehicle id="547" depart="218.80">
        <route edges="6:5 5:1 1:0 0:2"/>
    </vehicle>
    <vehicle id="548" depart="219.20">
        <route edges="1:0 0:2"/>
    </vehicle>
    <vehicle id="550" depart="220.00">
        <route edges="7:3 3:1 1:0 0:2"/>
    </vehicle>
    <vehicle id="553" depart="221.20">
        <route edges="3:1 1:0 0:2"/>
    </vehicle>
    <vehicle id="554" depart="221.60">
        <route edges="3:1 1:5 5:6"/>
    </vehicle>
    <vehicle id="556" depart="222.40">
        <route edges="2:0 0:1 1:5 5:6"/>
    </vehicle>
    <vehicle id="559" depart="223.60">
        <route edges="1:3 3:7"/>
    </vehicle>
    <vehicle id="561" depart="224.40">
        <route edges="7:3 3:1 1:5"/>
    </vehicle>
    <vehicle id="562" depart="224.80">
        <route edges="3:1"/>
    </vehicle>
    <vehicle id="563" depart="225.20">
        <route edges="6:5 5:1 1:0"/>
    </vehicle>
    <vehicle id="564" depart="225.60">
        <route edges="1:0 0:2"/>
    </vehicle>
    <vehicle id="565" depart="226.00">
        <route edges="2:0 0:1"/>
    </vehicle>
    <vehicle id="567" depart="226.80">
        <route edges="2:0 0:1"/>
    </vehicle>
    <vehicle id="572" depart="228.80">
        <route edges="3:1"/>
    </vehicle>
    <vehicle id="573" depart="229.20">
        <route edges="2:0 0:1 1:3"/>
    </vehicle>
    <vehicle id="575" depart="230.00">
        <route edges="2:0 0:1 1:3 3:7"/>
    </vehicle>
    <vehicle id="576" depart="230.40">
        <route edges="6:5 5:1 1:0"/>
    </vehicle>
    <vehicle id="577" depart="230.80">
        <route edges="7:3 3:1 1:0"/>
    </vehicle>
    <vehicle id="579" depart="231.60">
        <route edges="1:5 5:6"/>
    </vehicle>
    <vehicle id="580" depart="232.00">
        <route edges="7:3 3:1 1:5 5:6"/>
    </vehicle>
    <vehicle id="581" depart="232.40">
        <route edges="7:3 3:1 1:5"/>
    </vehicle>
    <vehicle id="583" depart="233.20">
        <route edges="6:5 5:1 1:3"/>
    </vehicle>
    <vehicle id="585" depart="234.00">
        <route edges="7:3 3:1 1:0 0:2"/>
    </vehicle>
    <vehicle id="586" depart="234.40">
        <route edges="6:5 5:1 1:3 3:7"/>
    </vehicle>
    <vehicle id="587" depart="234.80">
        <route edges="7:3 3:1 1:0 0:2"/>
    </vehicle>
    <vehicle id="589" depart="235.60">
        <route edges="2:0 0:1"/>
    </vehicle>
    <vehicle id="591" depart="236.40">
        <route edges="2:0 0:1 1:3 3:7"/>
    </vehicle>
    <vehicle id="595" depart="238.00">
        <route edges="2:0 0:1 1:3 3:7"/>
    </vehicle>
    <vehicle id="596" depart="238.40">
        <route edges="1:0 0:2"/>
    </vehicle>
    <vehicle id="599" depart="239.60">
        <route edges="3:1 1:0"/>
    </vehicle>
    <vehicle id="601" depart="240.40">
        <route edges="1:5 5:6"/>
    </vehicle>
    <vehicle id="604" depart="241.60">
        <route edges="3:1 1:0 0:2"/>
    </vehicle>
    <vehicle id="606" depart="242.40">
        <route edges="0:1 1:3 3:7"/>
    </vehicle>
    <vehicle id="608" depart="243.20">
        <route edges="6:5 5:1"/>
    </vehicle>
    <vehicle id="609" depart="243.60">
        <route edges="7:3 3:1 1:0"/>
    </vehicle>
    <vehicle id="610" depart="244.00">
        <route edges="0:1 1:5 5:6"/>
    </vehicle>
    <vehicle id="612" depart="244.80">
        <route edges="5:1 1:3 3:7"/>
    </vehicle>
    <vehicle id="615" depart="246.00">
        <route edges="7:3 3:1"/>
    </vehicle>
    <vehicle id="616" depart="246.40">
        <route edges="2:0 0:1 1:3"/>
    </vehicle>
    <vehicle id="617" depart="246.80">
        <route edges="1:0"/>
    </vehicle>
    <vehicle id="618" depart="247.20">
        <route edges="7:3 3:1 1:0 0:2"/>
    </vehicle>
    <vehicle id="619" depart="247.60">
        <route edges="2:0 0:1"/>
    </vehicle>
    <vehicle id="620" depart="248.00">
        <route edges="0:1 1:3 3:7"/>
    </vehicle>
    <vehicle id="621" depart="248.40">
        <route edges="7:3 3:1"/>
    </vehicle>
    <vehicle id="622" depart="248.80">
        <route edges="2:0 0:1 1:3 3:7"/>
    </vehicle>
    <vehicle id="623" depart="249.20">
        <route edges="2:0 0:1 1:3 3:7"/>
    </vehicle>
    <vehicle id="624" depart="249.60">
        <route edges="6:5 5:1 1:0 0:2"/>
    </vehicle>
    <vehicle id="627" depart="250.80">
        <route edges="2:0 0:1 1:5"/>
    </vehicle>
    <vehicle id="628" depart="251.20">