<?xml version="1.0" encoding="UTF-8"?>

<!-- generated on Thu Feb 13 12:37:23 2014 by SUMO duarouter Version 0.18.0
<?xml version="1.0" encoding="UTF-8"?>

<configuration xmlns:xsi="http://www.w3.org/2001/XMLSchema-instance" xsi:noNamespaceSchemaLocation="http://sumo.sf.net/xsd/duarouterConfiguration.xsd">

    <input>
        <net-file value="simpleT.net.xml"/>
        <trip-files value="experimentos/simpleT.p0.1.2.trips.xml"/>
    </input>

    <output>
        <output-file value="experimentos/simpleT.p0.1.2.rou.xml"/>
    </output>

    <processing>
        <ignore-errors value="true"/>
    </processing>

    <random_number>
        <random value="true"/>
    </random_number>

</configuration>
-->

<routes xmlns:xsi="http://www.w3.org/2001/XMLSchema-instance" xsi:noNamespaceSchemaLocation="http://sumo.sf.net/xsd/routes_file.xsd">
    <vehicle id="1" depart="0.10">
        <route edges="1:5 5:6"/>
    </vehicle>
    <vehicle id="3" depart="0.30">
        <route edges="6:5 5:1 1:0 0:2"/>
    </vehicle>
    <vehicle id="4" depart="0.40">
        <route edges="2:0 0:1 1:3 3:7"/>
    </vehicle>
    <vehicle id="5" depart="0.50">
        <route edges="2:0 0:1 1:5"/>
    </vehicle>
    <vehicle id="6" depart="0.60">
        <route edges="1:3"/>
    </vehicle>
    <vehicle id="7" depart="0.70">
        <route edges="3:1 1:0 0:2"/>
    </vehicle>
    <vehicle id="11" depart="1.10">
        <route edges="6:5 5:1 1:0 0:2"/>
    </vehicle>
    <vehicle id="12" depart="1.20">
        <route edges="5:1 1:3 3:7"/>
    </vehicle>
    <vehicle id="14" depart="1.40">
        <route edges="7:3 3:1 1:0 0:2"/>
    </vehicle>
    <vehicle id="15" depart="1.50">
        <route edges="2:0 0:1"/>
    </vehicle>
    <vehicle id="17" depart="1.70">
        <route edges="7:3 3:1 1:5"/>
    </vehicle>
    <vehicle id="18" depart="1.80">
        <route edges="7:3 3:1"/>
    </vehicle>
    <vehicle id="19" depart="1.90">
        <route edges="7:3 3:1 1:0 0:2"/>
    </vehicle>
    <vehicle id="24" depart="2.40">
        <route edges="3:1 1:0"/>
    </vehicle>
    <vehicle id="26" depart="2.60">
        <route edges="3:1 1:0 0:2"/>
    </vehicle>
    <vehicle id="27" depart="2.70">
        <route edges="3:1 1:0"/>
    </vehicle>
    <vehicle id="31" depart="3.10">
        <route edges="3:1 1:5"/>
    </vehicle>
    <vehicle id="32" depart="3.20">
        <route edges="6:5 5:1 1:0 0:2"/>
    </vehicle>
    <vehicle id="33" depart="3.30">
        <route edges="3:1 1:0 0:2"/>
    </vehicle>
    <vehicle id="36" depart="3.60">
        <route edges="1:0 0:2"/>
    </vehicle>
    <vehicle id="38" depart="3.80">
        <route edges="3:1 1:5 5:6"/>
    </vehicle>
    <vehicle id="39" depart="3.90">
        <route edges="2:0 0:1 1:3 3:7"/>
    </vehicle>
    <vehicle id="46" depart="4.60">
        <route edges="2:0 0:1 1:3 3:7"/>
    </vehicle>
    <vehicle id="47" depart="4.70">
        <route edges="3:1 1:5 5:6"/>
    </vehicle>
    <vehicle id="49" depart="4.90">
        <route edges="0:1 1:5 5:6"/>
    </vehicle>
    <vehicle id="54" depart="5.40">
        <route edges="2:0 0:1 1:5 5:6"/>
    </vehicle>
    <vehicle id="56" depart="5.60">
        <route edges="2:0 0:1"/>
    </vehicle>
    <vehicle id="58" depart="5.80">
        <route edges="3:1 1:0"/>
    </vehicle>
    <vehicle id="61" depart="6.10">
        <route edges="2:0 0:1 1:3 3:7"/>
    </vehicle>
    <vehicle id="62" depart="6.20">
        <route edges="2:0 0:1 1:3 3:7"/>
    </vehicle>
    <vehicle id="63" depart="6.30">
        <route edges="7:3 3:1 1:5"/>
    </vehicle>
    <vehicle id="64" depart="6.40">
        <route edges="1:0 0:2"/>
    </vehicle>
    <vehicle id="70" depart="7.00">
        <route edges="7:3 3:1 1:0"/>
    </vehicle>
    <vehicle id="71" depart="7.10">
        <route edges="0:1"/>
    </vehicle>
    <vehicle id="72" depart="7.20">
        <route edges="2:0 0:1 1:3"/>
    </vehicle>
    <vehicle id="75" depart="7.50">
        <route edges="1:3 3:7"/>
    </vehicle>
    <vehicle id="78" depart="7.80">
        <route edges="0:1 1:3"/>
    </vehicle>
    <vehicle id="80" depart="8.00">
        <route edges="1:0"/>
    </vehicle>
    <vehicle id="81" depart="8.10">
        <route edges="6:5 5:1 1:3 3:7"/>
    </vehicle>
    <vehicle id="82" depart="8.20">
        <route edges="1:3"/>
    </vehicle>
    <vehicle id="84" depart="8.40">
        <route edges="2:0 0:1 1:3 3:7"/>
    </vehicle>
    <vehicle id="85" depart="8.50">
        <route edges="2:0 0:1"/>
    </vehicle>
    <vehicle id="87" depart="8.70">
        <route edges="1:3 3:7"/>
    </vehicle>
    <vehicle id="88" depart="8.80">
        <route edges="7:3 3:1"/>
    </vehicle>
    <vehicle id="89" depart="8.90">
        <route edges="7:3 3:1 1:0 0:2"/>
    </vehicle>
    <vehicle id="92" depart="9.20">
        <route edges="2:0 0:1 1:3 3:7"/>
    </vehicle>
    <vehicle id="93" depart="9.30">
        <route edges="2:0 0:1 1:5"/>
    </vehicle>
    <vehicle id="95" depart="9.50">
        <route edges="7:3 3:1 1:0 0:2"/>
    </vehicle>
    <vehicle id="96" depart="9.60">
        <route edges="2:0 0:1 1:3"/>
    </vehicle>
    <vehicle id="97" depart="9.70">
        <route edges="7:3 3:1 1:0 0:2"/>
    </vehicle>
    <vehicle id="98" depart="9.80">
        <route edges="6:5 5:1 1:0"/>
    </vehicle>
    <vehicle id="103" depart="10.30">
        <route edges="6:5 5:1 1:3 3:7"/>
    </vehicle>
    <vehicle id="105" depart="10.50">
        <route edges="7:3 3:1 1:0 0:2"/>
    </vehicle>
    <vehicle id="106" depart="10.60">
        <route edges="7:3 3:1 1:0 0:2"/>
    </vehicle>
    <vehicle id="108" depart="10.80">
        <route edges="2:0 0:1 1:5 5:6"/>
    </vehicle>
    <vehicle id="109" depart="10.90">
        <route edges="2:0 0:1 1:5"/>
    </vehicle>
    <vehicle id="111" depart="11.10">
        <route edges="6:5 5:1 1:3"/>
    </vehicle>
    <vehicle id="112" depart="11.20">
        <route edges="3:1 1:0"/>
    </vehicle>
    <vehicle id="115" depart="11.50">
        <route edges="1:0 0:2"/>
    </vehicle>
    <vehicle id="116" depart="11.60">
        <route edges="0:1 1:3"/>
    </vehicle>
    <vehicle id="118" depart="11.80">
        <route edges="3:1 1:0"/>
    </vehicle>
    <vehicle id="119" depart="11.90">
        <route edges="2:0 0:1 1:3 3:7"/>
    </vehicle>
    <vehicle id="122" depart="12.20">
        <route edges="1:3"/>
    </vehicle>
    <vehicle id="123" depart="12.30">
        <route edges="2:0 0:1 1:5 5:6"/>
    </vehicle>
    <vehicle id="128" depart="12.80">
        <route edges="7:3 3:1"/>
    </vehicle>
    <vehicle id="129" depart="12.90">
        <route edges="6:5 5:1 1:0"/>
    </vehicle>
    <vehicle id="130" depart="13.00">
        <route edges="1:3"/>
    </vehicle>
    <vehicle id="131" depart="13.10">
        <route edges="0:1 1:3"/>
    </vehicle>
    <vehicle id="132" depart="13.20">
        <route edges="0:1 1:3 3:7"/>
    </vehicle>
    <vehicle id="133" depart="13.30">
        <route edges="7:3 3:1 1:0"/>
    </vehicle>
    <vehicle id="134" depart="13.40">
        <route edges="7:3 3:1"/>
    </vehicle>
    <vehicle id="137" depart="13.70">
        <route edges="7:3 3:1"/>
    </vehicle>
    <vehicle id="138" depart="13.80">
        <route edges="2:0 0:1"/>
    </vehicle>
    <vehicle id="140" depart="14.00">
        <route edges="0:1 1:3 3:7"/>
    </vehicle>
    <vehicle id="143" depart="14.30">
        <route edges="6:5 5:1 1:0"/>
    </vehicle>
    <vehicle id="146" depart="14.60">
        <route edges="6:5 5:1 1:3 3:7"/>
    </vehicle>
    <vehicle id="148" depart="14.80">
        <route edges="3:1"/>
    </vehicle>
    <vehicle id="149" depart="14.90">
        <route edges="2:0 0:1 1:3 3:7"/>
    </vehicle>
    <vehicle id="151" depart="15.10">
        <route edges="2:0 0:1 1:3 3:7"/>
    </vehicle>
    <vehicle id="154" depart="15.40">
        <route edges="2:0 0:1 1:3 3:7"/>
    </vehicle>
    <vehicle id="157" depart="15.70">
        <route edges="7:3 3:1 1:0"/>
    </vehicle>
    <vehicle id="163" depart="16.30">
        <route edges="1:0 0:2"/>
    </vehicle>
    <vehicle id="164" depart="16.40">
        <route edges="0:1 1:3 3:7"/>
    </vehicle>
    <vehicle id="166" depart="16.60">
        <route edges="6:5 5:1 1:0 0:2"/>
    </vehicle>
    <vehicle id="167" depart="16.70">
        <route edges="0:1 1:5 5:6"/>
    </vehicle>
    <vehicle id="168" depart="16.80">
        <route edges="6:5 5:1 1:3 3:7"/>
    </vehicle>
    <vehicle id="170" depart="17.00">
        <route edges="2:0 0:1 1:3 3:7"/>
    </vehicle>
    <vehicle id="172" depart="17.20">
        <route edges="0:1 1:5 5:6"/>
    </vehicle>
    <vehicle id="175" depart="17.50">
        <route edges="2:0 0:1 1:3 3:7"/>
    </vehicle>
    <vehicle id="176" depart="17.60">
        <route edges="6:5 5:1 1:3 3:7"/>
    </vehicle>
    <vehicle id="180" depart="18.00">
        <route edges="2:0 0:1"/>
    </vehicle>
    <vehicle id="184" depart="18.40">
        <route edges="1:0"/>
    </vehicle>
    <vehicle id="185" depart="18.50">
        <route edges="5:1 1:0"/>
    </vehicle>
    <vehicle id="187" depart="18.70">
        <route edges="1:0 0:2"/>
    </vehicle>
    <vehicle id="188" depart="18.80">
        <route edges="6:5 5:1 1:3 3:7"/>
    </vehicle>
    <vehicle id="194" depart="19.40">
        <route edges="6:5 5:1 1:0"/>
    </vehicle>
    <vehicle id="198" depart="19.80">
        <route edges="2:0 0:1 1:3 3:7"/>
    </vehicle>
    <vehicle id="199" depart="19.90">
        <route edges="5:1 1:3 3:7"/>
    </vehicle>
    <vehicle id="200" depart="20.00">
        <route edges="6:5 5:1 1:0"/>
    </vehicle>
    <vehicle id="202" depart="20.20">
        <route edges="0:1 1:3 3:7"/>
    </vehicle>
    <vehicle id="203" depart="20.30">
        <route edges="1:0 0:2"/>
    </vehicle>
    <vehicle id="205" depart="20.50">
        <route edges="7:3 3:1 1:0 0:2"/>
    </vehicle>
    <vehicle id="207" depart="20.70">
        <route edges="0:1 1:3"/>
    </vehicle>
    <vehicle id="209" depart="20.90">
        <route edges="2:0 0:1"/>
    </vehicle>
    <vehicle id="211" depart="21.10">
        <route edges="7:3 3:1 1:0 0:2"/>
    </vehicle>
    <vehicle id="212" depart="21.20">
        <route edges="1:0"/>
    </vehicle>
    <vehicle id="213" depart="21.30">
        <route edges="3:1"/>
    </vehicle>
    <vehicle id="215" depart="21.50">
        <route edges="3:1 1:0"/>
    </vehicle>
    <vehicle id="217" depart="21.70">
        <route edges="5:1 1:3"/>
    </vehicle>
    <vehicle id="218" depart="21.80">
        <route edges="2:0 0:1 1:5 5:6"/>
    </vehicle>
    <vehicle id="222" depart="22.20">
        <route edges="2:0 0:1"/>
    </vehicle>
    <vehicle id="224" depart="22.40">
        <route edges="3:1 1:0"/>
    </vehicle>
    <vehicle id="225" depart="22.50">
        <route edges="2:0 0:1 1:5"/>
    </vehicle>
    <vehicle id="228" depart="22.80">
        <route edges="7:3 3:1 1:5 5:6"/>
    </vehicle>
    <vehicle id="230" depart="23.00">
        <route edges="3:1"/>
    </vehicle>
    <vehicle id="231" depart="23.10">
        <route edges="1:0 0:2"/>
    </vehicle>
    <vehicle id="232" depart="23.20">
        <route edges="2:0 0:1 1:3 3:7"/>
    </vehicle>
    <vehicle id="235" depart="23.50">
        <route edges="6:5 5:1 1:0 0:2"/>
    </vehicle>
    <vehicle id="236" depart="23.60">
        <route edges="2:0 0:1"/>
    </vehicle>
    <vehicle id="237" depart="23.70">
        <route edges="2:0 0:1 1:3 3:7"/>
    </vehicle>
    <vehicle id="239" depart="23.90">
        <route edges="3:1 1:0"/>
    </vehicle>
    <vehicle id="241" depart="24.10">
        <route edges="1:3"/>
    </vehicle>
    <vehicle id="242" depart="24.20">
        <route edges="0:1 1:3 3:7"/>
    </vehicle>
    <vehicle id="243" depart="24.30">
        <route edges="3:1 1:0 0:2"/>
    </vehicle>
    <vehicle id="244" depart="24.40">
        <route edges="2:0 0:1 1:5 5:6"/>
    </vehicle>
    <vehicle id="247" depart="24.70">
        <route edges="2:0 0:1 1:3 3:7"/>
    </vehicle>
    <vehicle id="250" depart="25.00">
        <route edges="7:3 3:1 1:0 0:2"/>
    </vehicle>
    <vehicle id="251" depart="25.10">
        <route edges="7:3 3:1 1:5"/>
    </vehicle>
    <vehicle id="252" depart="25.20">
        <route edges="7:3 3:1 1:0 0:2"/>
    </vehicle>
    <vehicle id="253" depart="25.30">
        <route edges="7:3 3:1 1:0 0:2"/>
    </vehicle>
    <vehicle id="254" depart="25.40">
        <route edges="7:3 3:1 1:0 0:2"/>
    </vehicle>
    <vehicle id="261" depart="26.10">
        <route edges="7:3 3:1 1:5 5:6"/>
    </vehicle>
    <vehicle id="264" depart="26.40">
        <route edges="3:1"/>
    </vehicle>
    <vehicle id="266" depart="26.60">
        <route edges="5:1 1:0 0:2"/>
    </vehicle>
    <vehicle id="267" depart="26.70">
        <route edges="1:0 0:2"/>
    </vehicle>
    <vehicle id="269" depart="26.90">
        <route edges="1:3 3:7"/>
    </vehicle>
    <vehicle id="270" depart="27.00">
        <route edges="5:1 1:3 3:7"/>
    </vehicle>
    <vehicle id="272" depart="27.20">
        <route edges="2:0 0:1 1:3 3:7"/>
    </vehicle>
    <vehicle id="275" depart="27.50">
        <route edges="2:0 0:1"/>
    </vehicle>
    <vehicle id="276" depart="27.60">
        <route edges="0:1 1:3 3:7"/>
    </vehicle>
    <vehicle id="278" depart="27.80">
        <route edges="7:3 3:1 1:0"/>
    </vehicle>
    <vehicle id="281" depart="28.10">
        <route edges="1:3"/>
    </vehicle>
    <vehicle id="283" depart="28.30">
        <route edges="7:3 3:1 1:0 0:2"/>
    </vehicle>
    <vehicle id="284" depart="28.40">
        <route edges="6:5 5:1 1:3 3:7"/>
    </vehicle>
    <vehicle id="287" depart="28.70">
        <route edges="1:0 0:2"/>
    </vehicle>
    <vehicle id="288" depart="28.80">
        <route edges="3:1"/>
    </vehicle>
    <vehicle id="290" depart="29.00">
        <route edges="3:1"/>
    </vehicle>
    <vehicle id="291" depart="29.10">
        <route edges="7:3 3:1 1:0"/>
    </vehicle>
    <vehicle id="296" depart="29.60">
        <route edges="6:5 5:1 1:3"/>
    </vehicle>
    <vehicle id="297" depart="29.70">
        <route edges="7:3 3:1 1:0"/>
    </vehicle>
    <vehicle id="298" depart="29.80">
        <route edges="3:1 1:0 0:2"/>
    </vehicle>
    <vehicle id="300" depart="30.00">
        <route edges="2:0 0:1 1:5"/>
    </vehicle>
    <vehicle id="302" depart="30.20">
        <route edges="1:3 3:7"/>
    </vehicle>
    <vehicle id="305" depart="30.50">
        <route edges="2:0 0:1 1:5 5:6"/>
    </vehicle>
    <vehicle id="306" depart="30.60">
        <route edges="7:3 3:1 1:0 0:2"/>
    </vehicle>
    <vehicle id="308" depart="30.80">
        <route edges="6:5 5:1 1:3 3:7"/>
    </vehicle>
    <vehicle id="309" depart="30.90">
        <route edges="7:3 3:1 1:5"/>
    </vehicle>
    <vehicle id="311" depart="31.10">
        <route edges="7:3 3:1"/>
    </vehicle>
    <vehicle id="312" depart="31.20">
        <route edges="5:1 1:0 0:2"/>
    </vehicle>
    <vehicle id="313" depart="31.30">
        <route edges="6:5 5:1 1:3 3:7"/>
    </vehicle>
    <vehicle id="314" depart="31.40">
        <route edges="5:1 1:3"/>
    </vehicle>
    <vehicle id="317" depart="31.70">
        <route edges="7:3 3:1 1:0"/>
    </vehicle>
    <vehicle id="319" depart="31.90">
        <route edges="3:1 1:0 0:2"/>
    </vehicle>
    <vehicle id="321" depart="32.10">
        <route edges="5:1 1:0"/>
    </vehicle>
    <vehicle id="322" depart="32.20">
        <route edges="2:0 0:1 1:3"/>
    </vehicle>
    <vehicle id="323" depart="32.30">
        <route edges="2:0 0:1 1:3 3:7"/>
    </vehicle>
    <vehicle id="328" depart="32.80">
        <route edges="0:1 1:5 5:6"/>
    </vehicle>
    <vehicle id="329" depart="32.90">
        <route edges="7:3 3:1 1:5 5:6"/>
    </vehicle>
    <vehicle id="332" depart="33.20">
        <route edges="7:3 3:1 1:5 5:6"/>
    </vehicle>
    <vehicle id="335" depart="33.50">
        <route edges="7:3 3:1 1:0"/>
    </vehicle>
    <vehicle id="339" depart="33.90">
        <route edges="5:1 1:0 0:2"/>
    </vehicle>
    <vehicle id="344" depart="34.40">
        <route edges="7:3 3:1 1:0 0:2"/>
    </vehicle>
    <vehicle id="347" depart="34.70">
        <route edges="7:3 3:1 1:0 0:2"/>
    </vehicle>
    <vehicle id="348" depart="34.80">
        <route edges="1:3 3:7"/>
    </vehicle>
    <vehicle id="354" depart="35.40">
        <route edges="1:3 3:7"/>
    </vehicle>
    <vehicle id="357" depart="35.70">
        <route edges="3:1 1:0"/>
    </vehicle>
    <vehicle id="358" depart="35.80">
        <route edges="1:3 3:7"/>
    </vehicle>
    <vehicle id="359" depart="35.90">
        <route edges="1:0"/>
    </vehicle>
    <vehicle id="360" depart="36.00">
        <route edges="7:3 3:1 1:0 0:2"/>
    </vehicle>
    <vehicle id="364" depart="36.40">
        <route edges="1:3"/>
    </vehicle>
    <vehicle id="365" depart="36.50">
        <route edges="6:5 5:1 1:0 0:2"/>
    </vehicle>
    <vehicle id="366" depart="36.60">
        <route edges="1:0"/>
    </vehicle>
    <vehicle id="370" depart="37.00">
        <route edges="2:0 0:1 1:3 3:7"/>
    </vehicle>
    <vehicle id="371" depart="37.10">
        <route edges="3:1 1:0 0:2"/>
    </vehicle>
    <vehicle id="375" depart="37.50">
        <route edges="2:0 0:1 1:5 5:6"/>
    </vehicle>
    <vehicle id="378" depart="37.80">
        <route edges="6:5 5:1 1:3 3:7"/>
    </vehicle>
    <vehicle id="379" depart="37.90">
        <route edges="7:3 3:1 1:5 5:6"/>
    </vehicle>
    <vehicle id="381" depart="38.10">
        <route edges="7:3 3:1 1:0"/>
    </vehicle>
    <vehicle id="385" depart="38.50">
        <route edges="0:1 1:5 5:6"/>
    </vehicle>
    <vehicle id="388" depart="38.80">
        <route edges="0:1 1:3"/>
    </vehicle>
    <vehicle id="389" depart="38.90">
        <route edges="2:0 0:1 1:5 5:6"/>
    </vehicle>
    <vehicle id="390" depart="39.00">
        <route edges="3:1 1:5"/>
    </vehicle>
    <vehicle id="391" depart="39.10">
        <route edges="0:1"/>
    </vehicle>
    <vehicle id="392" depart="39.20">
        <route edges="0:1 1:5 5:6"/>
    </vehicle>
    <vehicle id="398" depart="39.80">
        <route edges="5:1"/>
    </vehicle>
    <vehicle id="399" depart="39.90">
        <route edges="7:3 3:1"/>
    </vehicle>
    <vehicle id="403" depart="40.30">
        <route edges="1:3"/>
    </vehicle>
    <vehicle id="406" depart="40.60">
        <route edges="1:0 0:2"/>
    </vehicle>
    <vehicle id="407" depart="40.70">
        <route edges="5:1 1:3 3:7"/>
    </vehicle>
    <vehicle id="408" depart="40.80">
        <route edges="0:1 1:3 3:7"/>
    </vehicle>
    <vehicle id="410" depart="41.00">
        <route edges="6:5 5:1 1:0"/>
    </vehicle>
    <vehicle id="411" depart="41.10">
        <route edges="7:3 3:1 1:0"/>
    </vehicle>
    <vehicle id="412" depart="41.20">
        <route edges="7:3 3:1 1:5 5:6"/>
    </vehicle>
    <vehicle id="413" depart="41.30">
        <route edges="6:5 5:1 1:3"/>
    </vehicle>
    <vehicle id="414" depart="41.40">
        <route edges="5:1 1:3 3:7"/>
    </vehicle>
    <vehicle id="416" depart="41.60">
        <route edges="3:1 1:0"/>
    </vehicle>
    <vehicle id="418" depart="41.80">
        <route edges="2:0 0:1 1:3"/>
    </vehicle>
    <vehicle id="419" depart="41.90">
        <route edges="2:0 0:1 1:3"/>
    </vehicle>
    <vehicle id="420" depart="42.00">
        <route edges="1:3"/>
    </vehicle>
    <vehicle id="421" depart="42.10">
        <route edges="2:0 0:1 1:3"/>
    </vehicle>
    <vehicle id="423" depart="42.30">
        <route edges="7:3 3:1 1:0"/>
    </vehicle>
    <vehicle id="424" depart="42.40">
        <route edges="2:0 0:1 1:5 5:6"/>
    </vehicle>
    <vehicle id="426" depart="42.60">
        <route edges="0:1 1:3"/>
    </vehicle>
    <vehicle id="427" depart="42.70">
        <route edges="2:0 0:1 1:5 5:6"/>
    </vehicle>
    <vehicle id="428" depart="42.80">
        <route edges="7:3 3:1 1:0 0:2"/>
    </vehicle>
    <vehicle id="429" depart="42.90">
        <route edges="3:1 1:5"/>
    </vehicle>
    <vehicle id="430" depart="43.00">
        <route edges="2:0 0:1"/>
    </vehicle>
    <vehicle id="435" depart="43.50">
        <route edges="7:3 3:1 1:0"/>
    </vehicle>
    <vehicle id="436" depart="43.60">
        <route edges="5:1 1:0 0:2"/>
    </vehicle>
    <vehicle id="437" depart="43.70">
        <route edges="1:3 3:7"/>
    </vehicle>
    <vehicle id="440" depart="44.00">
        <route edges="0:1 1:3"/>
    </vehicle>
    <vehicle id="441" depart="44.10">
        <route edges="3:1 1:0 0:2"/>
    </vehicle>
    <vehicle id="442" depart="44.20">
        <route edges="1:3"/>
    </vehicle>
    <vehicle id="451" depart="45.10">
        <route edges="0:1 1:3 3:7"/>
    </vehicle>
    <vehicle id="455" depart="45.50">
        <route edges="6:5 5:1 1:3 3:7"/>
    </vehicle>
    <vehicle id="457" depart="45.70">
        <route edges="1:3"/>
    </vehicle>
    <vehicle id="458" depart="45.80">
        <route edges="3:1 1:0"/>
    </vehicle>
    <vehicle id="459" depart="45.90">
        <route edges="3:1 1:0"/>
    </vehicle>
    <vehicle id="464" depart="46.40">
        <route edges="5:1 1:0"/>
    </vehicle>
    <vehicle id="465" depart="46.50">
        <route edges="6:5 5:1 1:0 0:2"/>
    </vehicle>
    <vehicle id="467" depart="46.70">
        <route edges="2:0 0:1 1:3"/>
    </vehicle>
    <vehicle id="468" depart="46.80">
        <route edges="6:5 5:1 1:3 3:7"/>
    </vehicle>
    <vehicle id="470" depart="47.00">
        <route edges="3:1 1:5"/>
    </vehicle>
    <vehicle id="471" depart="47.10">
        <route edges="7:3 3:1 1:0 0:2"/>
    </vehicle>
    <vehicle id="474" depart="47.40">
        <route edges="6:5 5:1 1:0"/>
    </vehicle>
    <vehicle id="475" depart="47.50">
        <route edges="2:0 0:1 1:3 3:7"/>
    </vehicle>
    <vehicle id="478" depart="47.80">
        <route edges="7:3 3:1 1:0 0:2"/>
    </vehicle>
    <vehicle id="482" depart="48.20">
        <route edges="7:3 3:1 1:0 0:2"/>
    </vehicle>
    <vehicle id="483" depart="48.30">
        <route edges="2:0 0:1 1:5"/>
    </vehicle>
    <vehicle id="485" depart="48.50">
        <route edges="1:3 3:7"/>
    </vehicle>
    <vehicle id="489" depart="48.90">
        <route edges="0:1 1:3 3:7"/>
    </vehicle>
    <vehicle id="491" depart="49.10">
        <route edges="6:5 5:1 1:0 0:2"/>
    </vehicle>
    <vehicle id="493" depart="49.30">
        <route edges="2:0 0:1 1:3 3:7"/>
    </vehicle>
    <vehicle id="494" depart="49.40">
        <route edges="7:3 3:1 1:0"/>
    </vehicle>
    <vehicle id="502" depart="50.20">
        <route edges="2:0 0:1 1:3"/>
    </vehicle>
    <vehicle id="505" depart="50.50">
        <route edges="7:3 3:1"/>
    </vehicle>
    <vehicle id="513" depart="51.30">
        <route edges="2:0 0:1 1:5"/>
    </vehicle>
    <vehicle id="515" depart="51.50">
        <route edges="2:0 0:1 1:3"/>
    </vehicle>
    <vehicle id="516" depart="51.60">
        <route edges="7:3 3:1 1:5"/>
    </vehicle>
    <vehicle id="519" depart="51.90">
        <route edges="2:0 0:1 1:3"/>
    </vehicle>
    <vehicle id="520" depart="52.00">
        <route edges="6:5 5:1 1:0 0:2"/>
    </vehicle>
    <vehicle id="521" depart="52.10">
        <route edges="5:1 1:3"/>
    </vehicle>
    <vehicle id="522" depart="52.20">
        <route edges="7:3 3:1 1:5 5:6"/>
    </vehicle>
    <vehicle id="524" depart="52.40">
        <route edges="7:3 3:1 1:0 0:2"/>
    </vehicle>
    <vehicle id="527" depart="52.70">
        <route edges="2:0 0:1 1:3 3:7"/>
    </vehicle>
    <vehicle id="528" depart="52.80">
        <route edges="2:0 0:1 1:3 3:7"/>
    </vehicle>
    <vehicle id="531" depart="53.10">
        <route edges="6:5 5:1 1:3 3:7"/>
    </vehicle>
    <vehicle id="533" depart="53.30">
        <route edges="1:0"/>
    </vehicle>
    <vehicle id="534" depart="53.40">
        <route edges="2:0 0:1 1:3 3:7"/>
    </vehicle>
    <vehicle id="535" depart="53.50">
        <route edges="2:0 0:1 1:3"/>
    </vehicle>
    <vehicle id="536" depart="53.60">
        <route edges="2:0 0:1 1:3 3:7"/>
    </vehicle>
    <vehicle id="537" depart="53.70">
        <route edges="5:1 1:3 3:7"/>
    </vehicle>
    <vehicle id="538" depart="53.80">
        <route edges="7:3 3:1 1:5"/>
    </vehicle>
    <vehicle id="540" depart="54.00">
        <route edges="3:1 1:5 5:6"/>
    </vehicle>
    <vehicle id="541" depart="54.10">
        <route edges="1:0"/>
    </vehicle>
    <vehicle id="543" depart="54.30">
        <route edges="1:3"/>
    </vehicle>
    <vehicle id="544" depart="54.40">
        <route edges="7:3 3:1 1:0 0:2"/>
    </vehicle>
    <vehicle id="545" depart="54.50">
        <route edges="2:0 0:1 1:3 3:7"/>
    </vehicle>
    <vehicle id="546" depart="54.60">
        <route edges="1:3 3:7"/>
    </vehicle>
    <vehicle id="547" depart="54.70">
        <route edges="6:5 5:1 1:3"/>
    </vehicle>
    <vehicle id="550" depart="55.00">
        <route edges="2:0 0:1 1:3"/>
    </vehicle>
    <vehicle id="551" depart="55.10">
        <route edges="6:5 5:1 1:0 0:2"/>
    </vehicle>
    <vehicle id="554" depart="55.40">
        <route edges="2:0 0:1 1:3"/>
    </vehicle>
    <vehicle id="555" depart="55.50">
        <route edges="3:1 1:0 0:2"/>
    </vehicle>
    <vehicle id="557" depart="55.70">
        <route edges="3:1"/>
    </vehicle>
    <vehicle id="560" depart="56.00">
        <route edges="5:1"/>
    </vehicle>
    <vehicle id="562" depart="56.20">
        <route edges="7:3 3:1 1:0 0:2"/>
    </vehicle>
    <vehicle id="563" depart="56.30">
        <route edges="0:1 1:3"/>
    </vehicle>
    <vehicle id="564" depart="56.40">
        <route edges="6:5 5:1 1:0"/>
    </vehicle>
    <vehicle id="568" depart="56.80">
        <route edges="2:0 0:1 1:3 3:7"/>
    </vehicle>
    <vehicle id="569" depart="56.90">
        <route edges="2:0 0:1"/>
    </vehicle>
    <vehicle id="570" depart="57.00">
        <route edges="7:3 3:1 1:5 5:6"/>
    </vehicle>
    <vehicle id="571" depart="57.10">
        <route edges="2:0 0:1 1:3"/>
    </vehicle>
    <vehicle id="572" depart="57.20">
        <route edges="2:0 0:1 1:3"/>
    </vehicle>
    <vehicle id="575" depart="57.50">
        <route edges="3:1 1:5"/>
    </vehicle>
    <vehicle id="577" depart="57.70">
        <route edges="6:5 5:1 1:0 0:2"/>
    </vehicle>
    <vehicle id="579" depart="57.90">
        <route edges="1:3 3:7"/>
    </vehicle>
    <vehicle id="580" depart="58.00">
        <route edges="3:1 1:0 0:2"/>
    </vehicle>
    <vehicle id="581" depart="58.10">
        <route edges="0:1 1:5 5:6"/>
    </vehicle>
    <vehicle id="586" depart="58.60">
        <route edges="5:1 1:3 3:7"/>
    </vehicle>
    <vehicle id="587" depart="58.70">
        <route edges="6:5 5:1 1:3 3:7"/>
    </vehicle>
    <vehicle id="588" depart="58.80">
        <route edges="3:1 1:0"/>
    </vehicle>
    <vehicle id="589" depart="58.90">
        <route edges="3:1 1:5"/>
    </vehicle>
    <vehicle id="590" depart="59.00">
        <route edges="2:0 0:1 1:5"/>
    </vehicle>
    <vehicle id="594" depart="59.40">
        <route edges="6:5 5:1 1:0 0:2"/>
    </vehicle>
    <vehicle id="595" depart="59.50">
        <route edges="1:0 0:2"/>
    </vehicle>
    <vehicle id="596" depart="59.60">
        <route edges="0:1 1:3 3:7"/>
    </vehicle>
    <vehicle id="599" depart="59.90">
        <route edges="3:1 1:0 0:2"/>
    </vehicle>
    <vehicle id="600" depart="60.00">
        <route edges="5:1 1:0 0:2"/>
    </vehicle>
    <vehicle id="603" depart="60.30">
        <route edges="6:5 5:1"/>
    </vehicle>
    <vehicle id="604" depart="60.40">
        <route edges="5:1 1:3 3:7"/>
    </vehicle>
    <vehicle id="605" depart="60.50">
        <route edges="1:0 0:2"/>
    </vehicle>
    <vehicle id="608" depart="60.80">
        <route edges="1:0"/>
    </vehicle>
    <vehicle id="611" depart="61.10">
        <route edges="2:0 0:1 1:3 3:7"/>
    </vehicle>
    <vehicle id="612" depart="61.20">
        <route edges="7:3 3:1 1:0 0:2"/>
    </vehicle>
    <vehicle id="613" depart="61.30">
        <route edges="2:0 0:1"/>
    </vehicle>
    <vehicle id="617" depart="61.70">
        <route edges="7:3 3:1"/>
    </vehicle>
    <vehicle id="619" depart="61.90">
        <route edges="2:0 0:1"/>
    </vehicle>
    <vehicle id="620" depart="62.00">
        <route edges="0:1 1:3 3:7"/>
    </vehicle>
    <vehicle id="621" depart="62.10">
        <route edges="2:0 0:1 1:3 3:7"/>
    </vehicle>
    <vehicle id="623" depart="62.30">
        <route edges="2:0 0:1 1:3 3:7"/>
    </vehicle>
    <vehicle id="626" depart="62.60">
        <route edges="5:1 1:3 3:7"/>
    </vehicle>
    <vehicle id="629" depart="62.90">
        <route edges="2:0 0:1 1:3"/>
    </vehicle>
    <vehicle id="631" depart="63.10">
        <route edges="2:0 0:1 1:3"/>
    </vehicle>
    <vehicle id="632" depart="63.20">
        <route edges="7:3 3:1"/>
    </vehicle>
    <vehicle id="635" depart="63.50">
        <route edges="2:0 0:1 1:5 5:6"/>
    </vehicle>
    <vehicle id="637" depart="63.70">
        <route edges="6:5 5:1 1:0"/>
    </vehicle>
    <vehicle id="638" depart="63.80">
        <route edges="2:0 0:1 1:3"/>
    </vehicle>
    <vehicle id="641" depart="64.10">
        <route edges="0:1"/>
    </vehicle>
    <vehicle id="642" depart="64.20">
        <route edges="7:3 3:1 1:0 0:2"/>
    </vehicle>
    <vehicle id="643" depart="64.30">
        <route edges="2:0 0:1 1:5"/>
    </vehicle>
    <vehicle id="646" depart="64.60">
        <route edges="2:0 0:1 1:3 3:7"/>
    </vehicle>
    <vehicle id="649" depart="64.90">
        <route edges="7:3 3:1 1:0 0:2"/>
    </vehicle>
    <vehicle id="651" depart="65.10">
        <route edges="2:0 0:1 1:3"/>
    </vehicle>
    <vehicle id="653" depart="65.30">
        <route edges="7:3 3:1 1:0 0:2"/>
    </vehicle>
    <vehicle id="656" depart="65.60">
        <route edges="2:0 0:1 1:3"/>
    </vehicle>
    <vehicle id="658" depart="65.80">
        <route edges="5:1 1:0"/>