<?xml version="1.0" encoding="UTF-8"?>

<!-- generated on Thu Feb 13 12:39:47 2014 by SUMO duarouter Version 0.18.0
<?xml version="1.0" encoding="UTF-8"?>

<configuration xmlns:xsi="http://www.w3.org/2001/XMLSchema-instance" xsi:noNamespaceSchemaLocation="http://sumo.sf.net/xsd/duarouterConfiguration.xsd">

    <input>
        <net-file value="simpleT.net.xml"/>
        <trip-files value="experimentos/simpleT.p1.0.1.trips.xml"/>
    </input>

    <output>
        <output-file value="experimentos/simpleT.p1.0.1.rou.xml"/>
    </output>

    <processing>
        <ignore-errors value="true"/>
    </processing>

    <random_number>
        <random value="true"/>
    </random_number>

</configuration>
-->

<routes xmlns:xsi="http://www.w3.org/2001/XMLSchema-instance" xsi:noNamespaceSchemaLocation="http://sumo.sf.net/xsd/routes_file.xsd">
    <vehicle id="0" depart="0.00">
        <route edges="7:3 3:1"/>
    </vehicle>
    <vehicle id="2" depart="2.00">
        <route edges="5:1 1:3 3:7"/>
    </vehicle>
    <vehicle id="3" depart="3.00">
        <route edges="1:0"/>
    </vehicle>
    <vehicle id="5" depart="5.00">
        <route edges="7:3 3:1 1:0"/>
    </vehicle>
    <vehicle id="7" depart="7.00">
        <route edges="7:3 3:1 1:0 0:2"/>
    </vehicle>
    <vehicle id="8" depart="8.00">
        <route edges="7:3 3:1 1:0"/>
    </vehicle>
    <vehicle id="9" depart="9.00">
        <route edges="2:0 0:1 1:3 3:7"/>
    </vehicle>
    <vehicle id="13" depart="13.00">
        <route edges="3:1"/>
    </vehicle>
    <vehicle id="18" depart="18.00">
        <route edges="2:0 0:1 1:3"/>
    </vehicle>
    <vehicle id="19" depart="19.00">
        <route edges="7:3 3:1"/>
    </vehicle>
    <vehicle id="20" depart="20.00">
        <route edges="7:3 3:1 1:5"/>
    </vehicle>
    <vehicle id="22" depart="22.00">
        <route edges="7:3 3:1"/>
    </vehicle>
    <vehicle id="23" depart="23.00">
        <route edges="7:3 3:1 1:0 0:2"/>
    </vehicle>
    <vehicle id="24" depart="24.00">
        <route edges="7:3 3:1 1:5 5:6"/>
    </vehicle>
    <vehicle id="27" depart="27.00">
        <route edges="5:1 1:3 3:7"/>
    </vehicle>
    <vehicle id="29" depart="29.00">
        <route edges="5:1 1:3 3:7"/>
    </vehicle>
    <vehicle id="30" depart="30.00">
        <route edges="3:1 1:5"/>
    </vehicle>
    <vehicle id="34" depart="34.00">
        <route edges="5:1 1:0 0:2"/>
    </vehicle>
    <vehicle id="40" depart="40.00">
        <route edges="2:0 0:1 1:5 5:6"/>
    </vehicle>
    <vehicle id="42" depart="42.00">
        <route edges="2:0 0:1 1:3 3:7"/>
    </vehicle>
    <vehicle id="43" depart="43.00">
        <route edges="2:0 0:1 1:3 3:7"/>
    </vehicle>
    <vehicle id="50" depart="50.00">
        <route edges="1:3"/>
    </vehicle>
    <vehicle id="52" depart="52.00">
        <route edges="6:5 5:1 1:0"/>
    </vehicle>
    <vehicle id="54" depart="54.00">
        <route edges="3:1 1:0"/>
    </vehicle>
    <vehicle id="56" depart="56.00">
        <route edges="7:3 3:1 1:5 5:6"/>
    </vehicle>
    <vehicle id="58" depart="58.00">
        <route edges="6:5 5:1 1:0 0:2"/>
    </vehicle>
    <vehicle id="61" depart="61.00">
        <route edges="7:3 3:1 1:0 0:2"/>
    </vehicle>
    <vehicle id="62" depart="62.00">
        <route edges="2:0 0:1 1:3"/>
    </vehicle>
    <vehicle id="64" depart="64.00">
        <route edges="7:3 3:1 1:0 0:2"/>
    </vehicle>
    <vehicle id="65" depart="65.00">
        <route edges="6:5 5:1 1:0 0:2"/>
    </vehicle>
    <vehicle id="66" depart="66.00">
        <route edges="2:0 0:1 1:3"/>
    </vehicle>
    <vehicle id="68" depart="68.00">
        <route edges="3:1 1:0"/>
    </vehicle>
    <vehicle id="69" depart="69.00">
        <route edges="6:5 5:1 1:0"/>
    </vehicle>
    <vehicle id="73" depart="73.00">
        <route edges="2:0 0:1 1:3 3:7"/>
    </vehicle>
    <vehicle id="76" depart="76.00">
        <route edges="7:3 3:1"/>
    </vehicle>
    <vehicle id="77" depart="77.00">
        <route edges="2:0 0:1 1:3 3:7"/>
    </vehicle>
    <vehicle id="78" depart="78.00">
        <route edges="2:0 0:1 1:3 3:7"/>
    </vehicle>
    <vehicle id="79" depart="79.00">
        <route edges="3:1 1:0 0:2"/>
    </vehicle>
    <vehicle id="80" depart="80.00">
        <route edges="2:0 0:1 1:3"/>
    </vehicle>
    <vehicle id="85" depart="85.00">
        <route edges="3:1 1:0 0:2"/>
    </vehicle>
    <vehicle id="87" depart="87.00">
        <route edges="2:0 0:1 1:3 3:7"/>
    </vehicle>
    <vehicle id="88" depart="88.00">
        <route edges="6:5 5:1 1:0 0:2"/>
    </vehicle>
    <vehicle id="93" depart="93.00">
        <route edges="1:3 3:7"/>
    </vehicle>
    <vehicle id="94" depart="94.00">
        <route edges="0:1 1:5 5:6"/>
    </vehicle>
    <vehicle id="95" depart="95.00">
        <route edges="2:0 0:1 1:5"/>
    </vehicle>
    <vehicle id="99" depart="99.00">
        <route edges="2:0 0:1 1:3 3:7"/>
    </vehicle>
    <vehicle id="106" depart="106.00">
        <route edges="3:1 1:5 5:6"/>
    </vehicle>
    <vehicle id="109" depart="109.00">
        <route edges="7:3 3:1 1:5"/>
    </vehicle>
    <vehicle id="110" depart="110.00">
        <route edges="0:1 1:3 3:7"/>
    </vehicle>
    <vehicle id="111" depart="111.00">
        <route edges="7:3 3:1"/>
    </vehicle>
    <vehicle id="112" depart="112.00">
        <route edges="2:0 0:1 1:3 3:7"/>
    </vehicle>
    <vehicle id="113" depart="113.00">
        <route edges="2:0 0:1 1:5 5:6"/>
    </vehicle>
    <vehicle id="115" depart="115.00">
        <route edges="6:5 5:1 1:0 0:2"/>
    </vehicle>
    <vehicle id="116" depart="116.00">
        <route edges="0:1 1:3 3:7"/>
    </vehicle>
    <vehicle id="117" depart="117.00">
        <route edges="7:3 3:1 1:5"/>
    </vehicle>
    <vehicle id="122" depart="122.00">
        <route edges="6:5 5:1 1:3 3:7"/>
    </vehicle>
    <vehicle id="123" depart="123.00">
        <route edges="5:1"/>
    </vehicle>
    <vehicle id="124" depart="124.00">
        <route edges="7:3 3:1 1:0"/>
    </vehicle>
    <vehicle id="125" depart="125.00">
        <route edges="3:1"/>
    </vehicle>
    <vehicle id="126" depart="126.00">
        <route edges="2:0 0:1 1:5 5:6"/>
    </vehicle>
    <vehicle id="128" depart="128.00">
        <route edges="2:0 0:1 1:5 5:6"/>
    </vehicle>
    <vehicle id="129" depart="129.00">
        <route edges="6:5 5:1 1:0 0:2"/>
    </vehicle>
    <vehicle id="130" depart="130.00">
        <route edges="2:0 0:1 1:5"/>
    </vehicle>
    <vehicle id="131" depart="131.00">
        <route edges="3:1 1:0 0:2"/>
    </vehicle>
    <vehicle id="133" depart="133.00">
        <route edges="7:3 3:1 1:0 0:2"/>
    </vehicle>
    <vehicle id="134" depart="134.00">
        <route edges="2:0 0:1"/>
    </vehicle>
    <vehicle id="135" depart="135.00">
        <route edges="5:1 1:0"/>
    </vehicle>
    <vehicle id="137" depart="137.00">
        <route edges="1:3 3:7"/>
    </vehicle>
    <vehicle id="138" depart="138.00">
        <route edges="7:3 3:1 1:0 0:2"/>
    </vehicle>
    <vehicle id="140" depart="140.00">
        <route edges="5:1 1:3"/>
    </vehicle>
    <vehicle id="145" depart="145.00">
        <route edges="7:3 3:1 1:5"/>
    </vehicle>
    <vehicle id="149" depart="149.00">
        <route edges="2:0 0:1 1:3 3:7"/>
    </vehicle>
    <vehicle id="151" depart="151.00">
        <route edges="2:0 0:1 1:3"/>
    </vehicle>
    <vehicle id="153" depart="153.00">
        <route edges="2:0 0:1 1:3 3:7"/>
    </vehicle>
    <vehicle id="154" depart="154.00">
        <route edges="2:0 0:1 1:3"/>
    </vehicle>
    <vehicle id="157" depart="157.00">
        <route edges="2:0 0:1"/>
    </vehicle>
    <vehicle id="159" depart="159.00">
        <route edges="7:3 3:1"/>
    </vehicle>
    <vehicle id="160" depart="160.00">
        <route edges="6:5 5:1 1:3 3:7"/>
    </vehicle>
    <vehicle id="161" depart="161.00">
        <route edges="0:1 1:3 3:7"/>
    </vehicle>
    <vehicle id="163" depart="163.00">
        <route edges="3:1 1:5 5:6"/>
    </vehicle>
    <vehicle id="164" depart="164.00">
        <route edges="2:0 0:1 1:5"/>
    </vehicle>
    <vehicle id="168" depart="168.00">
        <route edges="2:0 0:1"/>
    </vehicle>
    <vehicle id="173" depart="173.00">
        <route edges="3:1 1:5"/>
    </vehicle>
    <vehicle id="174" depart="174.00">
        <route edges="0:1 1:3"/>
    </vehicle>
    <vehicle id="175" depart="175.00">
        <route edges="5:1 1:3 3:7"/>
    </vehicle>
    <vehicle id="179" depart="179.00">
        <route edges="0:1"/>
    </vehicle>
    <vehicle id="182" depart="182.00">
        <route edges="0:1 1:3 3:7"/>
    </vehicle>
    <vehicle id="183" depart="183.00">
        <route edges="7:3 3:1 1:0"/>
    </vehicle>
    <vehicle id="185" depart="185.00">
        <route edges="7:3 3:1"/>
    </vehicle>
    <vehicle id="187" depart="187.00">
        <route edges="2:0 0:1 1:3 3:7"/>
    </vehicle>
    <vehicle id="188" depart="188.00">
        <route edges="2:0 0:1 1:3 3:7"/>
    </vehicle>
    <vehicle id="189" depart="189.00">
        <route edges="2:0 0:1 1:3 3:7"/>
    </vehicle>
    <vehicle id="190" depart="190.00">
        <route edges="7:3 3:1"/>
    </vehicle>
    <vehicle id="193" depart="193.00">
        <route edges="0:1 1:5 5:6"/>
    </vehicle>
    <vehicle id="196" depart="196.00">
        <route edges="2:0 0:1 1:5"/>
    </vehicle>
    <vehicle id="197" depart="197.00">
        <route edges="2:0 0:1 1:3 3:7"/>
    </vehicle>
    <vehicle id="198" depart="198.00">
        <route edges="7:3 3:1"/>
    </vehicle>
    <vehicle id="200" depart="200.00">
        <route edges="1:3 3:7"/>
    </vehicle>
    <vehicle id="201" depart="201.00">
        <route edges="0:1 1:3 3:7"/>
    </vehicle>
    <vehicle id="208" depart="208.00">
        <route edges="7:3 3:1 1:5"/>
    </vehicle>
    <vehicle id="210" depart="210.00">
        <route edges="1:0 0:2"/>
    </vehicle>
    <vehicle id="211" depart="211.00">
        <route edges="7:3 3:1 1:0 0:2"/>
    </vehicle>
    <vehicle id="216" depart="216.00">
        <route edges="2:0 0:1 1:3"/>
    </vehicle>
    <vehicle id="220" depart="220.00">
        <route edges="2:0 0:1 1:3 3:7"/>
    </vehicle>
    <vehicle id="221" depart="221.00">
        <route edges="2:0 0:1 1:5 5:6"/>
    </vehicle>
    <vehicle id="223" depart="223.00">
        <route edges="6:5 5:1 1:0 0:2"/>
    </vehicle>
    <vehicle id="224" depart="224.00">
        <route edges="7:3 3:1"/>
    </vehicle>
    <vehicle id="225" depart="225.00">
        <route edges="2:0 0:1 1:5 5:6"/>
    </vehicle>
    <vehicle id="227" depart="227.00">
        <route edges="0:1 1:5 5:6"/>
    </vehicle>
    <vehicle id="228" depart="228.00">
        <route edges="1:0"/>
    </vehicle>
    <vehicle id="229" depart="229.00">
        <route edges="0:1 1:3"/>
    </vehicle>
    <vehicle id="231" depart="231.00">
        <route edges="2:0 0:1 1:3 3:7"/>
    </vehicle>
    <vehicle id="232" depart="232.00">
        <route edges="7:3 3:1 1:0 0:2"/>
    </vehicle>
    <vehicle id="234" depart="234.00">
        <route edges="2:0 0:1 1:3 3:7"/>
    </vehicle>
    <vehicle id="235" depart="235.00">
        <route edges="7:3 3:1 1:0 0:2"/>
    </vehicle>
    <vehicle id="236" depart="236.00">
        <route edges="3:1 1:5"/>
    </vehicle>
    <vehicle id="240" depart="240.00">
        <route edges="7:3 3:1 1:0 0:2"/>
    </vehicle>
    <vehicle id="248" depart="248.00">
        <route edges="0:1 1:5 5:6"/>
    </vehicle>
    <vehicle id="250" depart="250.00">
        <route edges="2:0 0:1"/>
    </vehicle>
    <vehicle id="251" depart="251.00">
        <route edges="7:3 3:1 1:0 0:2"/>
    </vehicle>
    <vehicle id="256" depart="256.00">
        <route edges="1:3 3:7"/>
    </vehicle>
    <vehicle id="259" depart="259.00">
        <route edges="2:0 0:1 1:3"/>
    </vehicle>
    <vehicle id="261" depart="261.00">
        <route edges="7:3 3:1 1:0 0:2"/>
    </vehicle>
    <vehicle id="264" depart="264.00">
        <route edges="2:0 0:1"/>
    </vehicle>
    <vehicle id="265" depart="265.00">
        <route edges="3:1 1:0 0:2"/>
    </vehicle>
    <vehicle id="266" depart="266.00">
        <route edges="1:0 0:2"/>
    </vehicle>
    <vehicle id="267" depart="267.00">
        <route edges="7:3 3:1 1:0 0:2"/>
    </vehicle>
    <vehicle id="272" depart="272.00">
        <route edges="3:1 1:5 5:6"/>
    </vehicle>
    <vehicle id="275" depart="275.00">
        <route edges="6:5 5:1 1:0 0:2"/>
    </vehicle>
    <vehicle id="276" depart="276.00">
        <route edges="2:0 0:1 1:3"/>
    </vehicle>
    <vehicle id="277" depart="277.00">
        <route edges="5:1 1:3 3:7"/>
    </vehicle>
    <vehicle id="279" depart="279.00">
        <route edges="2:0 0:1 1:5 5:6"/>
    </vehicle>
    <vehicle id="280" depart="280.00">
        <route edges="1:0 0:2"/>
    </vehicle>
    <vehicle id="283" depart="283.00">
        <route edges="7:3 3:1 1:0 0:2"/>
    </vehicle>
    <vehicle id="284" depart="284.00">
        <route edges="2:0 0:1 1:3"/>
    </vehicle>
    <vehicle id="286" depart="286.00">
        <route edges="2:0 0:1 1:5 5:6"/>
    </vehicle>
    <vehicle id="287" depart="287.00">
        <route edges="7:3 3:1 1:5 5:6"/>
    </vehicle>
    <vehicle id="292" depart="292.00">
        <route edges="1:0 0:2"/>
    </vehicle>
    <vehicle id="293" depart="293.00">
        <route edges="6:5 5:1"/>
    </vehicle>
    <vehicle id="294" depart="294.00">
        <route edges="1:0 0:2"/>
    </vehicle>
    <vehicle id="297" depart="297.00">
        <route edges="2:0 0:1"/>
    </vehicle>
    <vehicle id="298" depart="298.00">
        <route edges="2:0 0:1 1:3 3:7"/>
    </vehicle>
    <vehicle id="299" depart="299.00">
        <route edges="2:0 0:1"/>
    </vehicle>
    <vehicle id="301" depart="301.00">
        <route edges="2:0 0:1"/>
    </vehicle>
    <vehicle id="308" depart="308.00">
        <route edges="1:0"/>
    </vehicle>
    <vehicle id="314" depart="314.00">
        <route edges="7:3 3:1 1:0 0:2"/>
    </vehicle>
    <vehicle id="318" depart="318.00">
        <route edges="7:3 3:1 1:5"/>
    </vehicle>
    <vehicle id="321" depart="321.00">
        <route edges="6:5 5:1 1:0 0:2"/>
    </vehicle>
    <vehicle id="323" depart="323.00">
        <route edges="2:0 0:1 1:3 3:7"/>
    </vehicle>
    <vehicle id="324" depart="324.00">
        <route edges="3:1"/>
    </vehicle>
    <vehicle id="326" depart="326.00">
        <route edges="2:0 0:1"/>
    </vehicle>
    <vehicle id="327" depart="327.00">
        <route edges="7:3 3:1"/>
    </vehicle>
    <vehicle id="329" depart="329.00">
        <route edges="2:0 0:1"/>
    </vehicle>
    <vehicle id="330" depart="330.00">
        <route edges="1:0 0:2"/>
    </vehicle>
    <vehicle id="333" depart="333.00">
        <route edges="0:1"/>
    </vehicle>
    <vehicle id="335" depart="335.00">
        <route edges="6:5 5:1 1:0 0:2"/>
    </vehicle>
    <vehicle id="338" depart="338.00">
        <route edges="1:3 3:7"/>
    </vehicle>
    <vehicle id="339" depart="339.00">
        <route edges="2:0 0:1"/>
    </vehicle>
    <vehicle id="347" depart="347.00">
        <route edges="2:0 0:1 1:5 5:6"/>
    </vehicle>
    <vehicle id="348" depart="348.00">
        <route edges="3:1 1:0 0:2"/>
    </vehicle>
    <vehicle id="351" depart="351.00">
        <route edges="1:3"/>
    </vehicle>
    <vehicle id="352" depart="352.00">
        <route edges="7:3 3:1 1:0 0:2"/>
    </vehicle>
    <vehicle id="353" depart="353.00">
        <route edges="0:1 1:5 5:6"/>
    </vehicle>
    <vehicle id="358" depart="358.00">
        <route edges="2:0 0:1 1:3"/>
    </vehicle>
    <vehicle id="360" depart="360.00">
        <route edges="1:0 0:2"/>
    </vehicle>
    <vehicle id="362" depart="362.00">
        <route edges="6:5 5:1 1:3"/>
    </vehicle>
    <vehicle id="363" depart="363.00">
        <route edges="2:0 0:1 1:5 5:6"/>
    </vehicle>
    <vehicle id="364" depart="364.00">
        <route edges="2:0 0:1 1:3 3:7"/>
    </vehicle>
    <vehicle id="365" depart="365.00">
        <route edges="7:3 3:1 1:0 0:2"/>
    </vehicle>
    <vehicle id="367" depart="367.00">
        <route edges="0:1 1:3 3:7"/>
    </vehicle>
    <vehicle id="368" depart="368.00">
        <route edges="0:1 1:3 3:7"/>
    </vehicle>
    <vehicle id="372" depart="372.00">
        <route edges="7:3 3:1 1:0 0:2"/>
    </vehicle>
    <vehicle id="374" depart="374.00">
        <route edges="3:1 1:0"/>
    </vehicle>
    <vehicle id="375" depart="375.00">
        <route edges="7:3 3:1 1:5 5:6"/>
    </vehicle>
    <vehicle id="376" depart="376.00">
        <route edges="2:0 0:1"/>
    </vehicle>
    <vehicle id="378" depart="378.00">
        <route edges="2:0 0:1 1:5"/>
    </vehicle>
    <vehicle id="379" depart="379.00">
        <route edges="3:1 1:0 0:2"/>
    </vehicle>
    <vehicle id="380" depart="380.00">
        <route edges="0:1 1:3"/>
    </vehicle>
    <vehicle id="386" depart="386.00">
        <route edges="7:3 3:1 1:0 0:2"/>
    </vehicle>
    <vehicle id="387" depart="387.00">
        <route edges="3:1 1:0"/>
    </vehicle>
    <vehicle id="390" depart="390.00">
        <route edges="0:1 1:3"/>
    </vehicle>
    <vehicle id="393" depart="393.00">
        <route edges="1:3 3:7"/>
    </vehicle>
    <vehicle id="395" depart="395.00">
        <route edges="7:3 3:1 1:0"/>
    </vehicle>
    <vehicle id="397" depart="397.00">
        <route edges="5:1 1:3"/>
    </vehicle>
    <vehicle id="399" depart="399.00">
        <route edges="1:5 5:6"/>
    </vehicle>
    <vehicle id="406" depart="406.00">
        <route edges="2:0 0:1 1:3 3:7"/>
    </vehicle>
    <vehicle id="409" depart="409.00">
        <route edges="1:3 3:7"/>
    </vehicle>
    <vehicle id="414" depart="414.00">
        <route edges="6:5 5:1 1:0"/>
    </vehicle>
    <vehicle id="419" depart="419.00">
        <route edges="5:1 1:0 0:2"/>
    </vehicle>
    <vehicle id="422" depart="422.00">
        <route edges="7:3 3:1 1:0 0:2"/>
    </vehicle>
    <vehicle id="425" depart="425.00">
        <route edges="0:1 1:3"/>
    </vehicle>
    <vehicle id="429" depart="429.00">
        <route edges="2:0 0:1 1:3 3:7"/>
    </vehicle>
    <vehicle id="433" depart="433.00">
        <route edges="6:5 5:1 1:3 3:7"/>
    </vehicle>
    <vehicle id="434" depart="434.00">
        <route edges="0:1 1:3 3:7"/>
    </vehicle>
    <vehicle id="435" depart="435.00">
        <route edges="7:3 3:1 1:0"/>
    </vehicle>
    <vehicle id="438" depart="438.00">
        <route edges="7:3 3:1 1:5 5:6"/>
    </vehicle>
    <vehicle id="440" depart="440.00">
        <route edges="5:1 1:3 3:7"/>
    </vehicle>
    <vehicle id="443" depart="443.00">
        <route edges="1:0"/>
    </vehicle>
    <vehicle id="445" depart="445.00">
        <route edges="1:3"/>
    </vehicle>
    <vehicle id="446" depart="446.00">
        <route edges="7:3 3:1"/>
    </vehicle>
    <vehicle id="447" depart="447.00">
        <route edges="0:1 1:5 5:6"/>
    </vehicle>
    <vehicle id="449" depart="449.00">
        <route edges="2:0 0:1 1:3 3:7"/>
    </vehicle>
    <vehicle id="450" depart="450.00">
        <route edges="7:3 3:1 1:0"/>
    </vehicle>
    <vehicle id="453" depart="453.00">
        <route edges="0:1 1:3 3:7"/>
    </vehicle>
    <vehicle id="454" depart="454.00">
        <route edges="1:0"/>
    </vehicle>
    <vehicle id="462" depart="462.00">
        <route edges="7:3 3:1 1:0 0:2"/>
    </vehicle>
    <vehicle id="463" depart="463.00">
        <route edges="7:3 3:1 1:5 5:6"/>
    </vehicle>
    <vehicle id="469" depart="469.00">
        <route edges="7:3 3:1 1:0 0:2"/>
    </vehicle>
    <vehicle id="477" depart="477.00">
        <route edges="7:3 3:1"/>
    </vehicle>
    <vehicle id="478" depart="478.00">
        <route edges="1:3 3:7"/>
    </vehicle>
    <vehicle id="481" depart="481.00">
        <route edges="1:0 0:2"/>
    </vehicle>
    <vehicle id="483" depart="483.00">
        <route edges="2:0 0:1"/>
    </vehicle>
    <vehicle id="484" depart="484.00">
        <route edges="0:1 1:3 3:7"/>
    </vehicle>
    <vehicle id="486" depart="486.00">
        <route edges="7:3 3:1 1:5 5:6"/>
    </vehicle>
    <vehicle id="488" depart="488.00">
        <route edges="2:0 0:1 1:3 3:7"/>
    </vehicle>
    <vehicle id="489" depart="489.00">
        <route edges="7:3 3:1 1:0"/>
    </vehicle>
    <vehicle id="490" depart="490.00">
        <route edges="6:5 5:1 1:3 3:7"/>
    </vehicle>
    <vehicle id="495" depart="495.00">
        <route edges="2:0 0:1"/>
    </vehicle>
    <vehicle id="496" depart="496.00">
        <route edges="1:0 0:2"/>
    </vehicle>
    <vehicle id="497" depart="497.00">
        <route edges="0:1"/>
    </vehicle>
    <vehicle id="498" depart="498.00">
        <route edges="5:1 1:3 3:7"/>
    </vehicle>
    <vehicle id="502" depart="502.00">
        <route edges="7:3 3:1 1:0 0:2"/>
    </vehicle>
    <vehicle id="506" depart="506.00">
        <route edges="7:3 3:1 1:5 5:6"/>
    </vehicle>
    <vehicle id="507" depart="507.00">
        <route edges="5:1 1:0 0:2"/>
    </vehicle>
    <vehicle id="509" depart="509.00">
        <route edges="2:0 0:1 1:3"/>
    </vehicle>
    <vehicle id="510" depart="510.00">
        <route edges="3:1 1:0 0:2"/>
    </vehicle>
    <vehicle id="511" depart="511.00">
        <route edges="6:5 5:1 1:3 3:7"/>
    </vehicle>
    <vehicle id="512" depart="512.00">
        <route edges="1:0 0:2"/>
    </vehicle>
    <vehicle id="516" depart="516.00">
        <route edges="2:0 0:1"/>
    </vehicle>
    <vehicle id="517" depart="517.00">
        <route edges="0:1 1:3 3:7"/>
    </vehicle>
    <vehicle id="522" depart="522.00">
        <route edges="0:1"/>
    </vehicle>
    <vehicle id="524" depart="524.00">
        <route edges="0:1 1:3 3:7"/>
    </vehicle>
    <vehicle id="526" depart="526.00">
        <route edges="5:1 1:0"/>
    </vehicle>
    <vehicle id="527" depart="527.00">
        <route edges="7:3 3:1"/>
    </vehicle>
    <vehicle id="528" depart="528.00">
        <route edges="7:3 3:1"/>
    </vehicle>
    <vehicle id="530" depart="530.00">
        <route edges="7:3 3:1 1:0 0:2"/>
    </vehicle>
    <vehicle id="534" depart="534.00">
        <route edges="7:3 3:1 1:0 0:2"/>
    </vehicle>
    <vehicle id="535" depart="535.00">
        <route edges="1:0 0:2"/>
    </vehicle>
    <vehicle id="536" depart="536.00">
        <route edges="5:1 1:0 0:2"/>
    </vehicle>
    <vehicle id="537" depart="537.00">
        <route edges="0:1 1:3 3:7"/>
    </vehicle>
    <vehicle id="538" depart="538.00">
        <route edges="6:5 5:1 1:0 0:2"/>
    </vehicle>
    <vehicle id="539" depart="539.00">
        <route edges="2:0 0:1"/>
    </vehicle>
    <vehicle id="542" depart="542.00">
        <route edges="1:0 0:2"/>
    </vehicle>
    <vehicle id="543" depart="543.00">
        <route edges="5:1 1:0 0:2"/>
    </vehicle>
    <vehicle id="545" depart="545.00">
        <route edges="5:1 1:0 0:2"/>
    </vehicle>
    <vehicle id="547" depart="547.00">
        <route edges="7:3 3:1 1:5"/>
    </vehicle>
    <vehicle id="550" depart="550.00">
        <route edges="5:1"/>
    </vehicle>
    <vehicle id="551" depart="551.00">
        <route edges="7:3 3:1 1:0"/>
    </vehicle>
    <vehicle id="552" depart="552.00">
        <route edges="7:3 3:1 1:0 0:2"/>
    </vehicle>
    <vehicle id="553" depart="553.00">
        <route edges="7:3 3:1 1:0"/>
    </vehicle>
    <vehicle id="554" depart="554.00">
        <route edges="1:3 3:7"/>
    </vehicle>
    <vehicle id="555" depart="555.00">
        <route edges="1:3 3:7"/>
    </vehicle>
    <vehicle id="558" depart="558.00">
        <route edges="7:3 3:1 1:0 0:2"/>
    </vehicle>
    <vehicle id="560" depart="560.00">
        <route edges="1:5 5:6"/>
    </vehicle>
    <vehicle id="561" depart="561.00">
        <route edges="2:0 0:1 1:3"/>
    </vehicle>
    <vehicle id="564" depart="564.00">
        <route edges="1:3 3:7"/>
    </vehicle>
    <vehicle id="567" depart="567.00">
        <route edges="7:3 3:1 1:5 5:6"/>
    </vehicle>
    <vehicle id="568" depart="568.00">
        <route edges="2:0 0:1 1:5 5:6"/>
    </vehicle>
    <vehicle id="569" depart="569.00">
        <route edges="6:5 5:1 1:0 0:2"/>
    </vehicle>
    <vehicle id="570" depart="570.00">
        <route edges="6:5 5:1 1:3 3:7"/>
    </vehicle>
    <vehicle id="572" depart="572.00">
        <route edges="2:0 0:1 1:5 5:6"/>
    </vehicle>
    <vehicle id="573" depart="573.00">
        <route edges="7:3 3:1 1:5"/>
    </vehicle>
    <vehicle id="574" depart="574.00">
        <route edges="1:0 0:2"/>
    </vehicle>
    <vehicle id="575" depart="575.00">
        <route edges="1:3 3:7"/>
    </vehicle>
    <vehicle id="577" depart="577.00">
        <route edges="2:0 0:1 1:3 3:7"/>
    </vehicle>
    <vehicle id="578" depart="578.00">
        <route edges="5:1 1:0 0:2"/>
    </vehicle>
    <vehicle id="579" depart="579.00">
        <route edges="0:1 1:3"/>
    </vehicle>
    <vehicle id="586" depart="586.00">
        <route edges="7:3 3:1 1:5 5:6"/>
    </vehicle>
    <vehicle id="587" depart="587.00">
        <route edges="3:1"/>
    </vehicle>
    <vehicle id="589" depart="589.00">
        <route edges="0:1 1:3"/>
    </vehicle>
    <vehicle id="592" depart="592.00">
        <route edges="2:0 0:1 1:5 5:6"/>
    </vehicle>
    <vehicle id="593" depart="593.00">
        <route edges="0:1"/>
    </vehicle>
    <vehicle id="594" depart="594.00">
        <route edges="6:5 5:1"/>
    </vehicle>
    <vehicle id="595" depart="595.00">
        <route edges="0:1 1:3 3:7"/>
    </vehicle>
    <vehicle id="596" depart="596.00">
        <route edges="2:0 0:1 1:5 5:6"/>
    </vehicle>
    <vehicle id="597" depart="597.00">
        <route edges="7:3 3:1 1:0 0:2"/>
    </vehicle>
    <vehicle id="598" depart="598.00">
        <route edges="2:0 0:1 1:3"/>
    </vehicle>
    <vehicle id="601" depart="601.00">
        <route edges="6:5 5:1 1:3 3:7"/>
    </vehicle>
    <vehicle id="603" depart="603.00">
        <route edges="6:5 5:1"/>
    </vehicle>
    <vehicle id="604" depart="604.00">
        <route edges="2:0 0:1 1:3"/>
    </vehicle>
    <vehicle id="605" depart="605.00">
        <route edges="2:0 0:1 1:5 5:6"/>
    </vehicle>
    <vehicle id="606" depart="606.00">
        <route edges="0:1 1:3 3:7"/>
    </vehicle>
    <vehicle id="607" depart="607.00">
        <route edges="7:3 3:1"/>
    </vehicle>
    <vehicle id="608" depart="608.00">
        <route edges="6:5 5:1 1:0 0:2"/>
    </vehicle>
    <vehicle id="626" depart="626.00">
        <route edges="0:1"/>
    </vehicle>
    <vehicle id="627" depart="627.00">
        <route edges="7:3 3:1 1:0"/>
    </vehicle>
    <vehicle id="630" depart="630.00">
        <route edges="7:3 3:1 1:0 0:2"/>
    </vehicle>
    <vehicle id="633" depart="633.00">
        <route edges="3:1 1:0 0:2"/>
    </vehicle>
    <vehicle id="634" depart="634.00">
        <route edges="7:3 3:1 1:0"/>
    </vehicle>
    <vehicle id="635" depart="635.00">
        <route edges="2:0 0:1 1:3 3:7"/>
    </vehicle>
    <vehicle id="637" depart="637.00">
        <route edges="0:1 1:5"/>
    </vehicle>
    <vehicle id="638" depart="638.00">
        <route edges="0:1 1:3 3:7"/>
    </vehicle>
    <vehicle id="639" depart="639.00">
        <route edges="2:0 0:1"/>
    </vehicle>
    <vehicle id="640" depart="640.00">
        <route edges="2:0 0:1"/>
    </vehicle>
    <vehicle id="643" depart="643.00">
        <route edges="2:0 0:1"/>
    </vehicle>
    <vehicle id="644" depart="644.00">
        <route edges="5:1 1:0"/>
    </vehicle>
    <vehicle id="645" depart="645.00">
        <route edges="1:0 0:2"/>
    </vehicle>
    <vehicle id="647" depart="647.00">
        <route edges="2:0 0:1 1:5 5:6"/>
    </vehicle>
    <vehicle id="648" depart="648.00">
        <route edges="7:3 3:1 1:5 5:6"/>
    </vehicle>
    <vehicle id="649" depart="649.00">
        <route edges="0:1"/>
    </vehicle>
    <vehicle id="650" depart="650.00">
        <route edges="7:3 3:1"/>
    </vehicle>
    <vehicle id="652" depart="652.00">
        <route edges="1:3 3:7"/>
    </vehicle>
    <vehicle id="654" depart="654.00">
        <route edges="0:1"/>
    </vehicle>
    <vehicle id="655" depart="655.00">
        <route edges="7:3 3:1 1:0"/>
    </vehicle>
    <vehicle id="656" depart="656.00">
        <route edges="1:3 3:7"/>
    </vehicle>
    <vehicle id="662" depart="662.00">
        <route edges="6:5 5:1 1:3 3:7"/>
    </vehicle>
    <vehicle id="663" depart="663.00">
        <route edges="6:5 5:1 1:3 3:7"/>
    </vehicle>
    <vehicle id="664" depart="664.00">
        <route edges="0:1 1:5 5:6"/>
    </vehicle>
    <vehicle id="665" depart="665.00">
        <route edges="3:1 1:0 0:2"/>
    </vehicle>
    <vehicle id="670" depart="670.00">
        <route edges="1:0 0:2"/>
    </vehicle>
    <vehicle id="672" depart="672.00">
        <route edges="1:3 3:7"/>
    </vehicle>
    <vehicle id="673" depart="673.00">
        <route edges="1:3 3:7"/>
    </vehicle>
    <vehicle id="674" depart="674.00">
        <route edges="3:1 1:0 0:2"/>
    </vehicle>
    <vehicle id="676" depart="676.00">
        <route edges="7:3 3:1"/>
    </vehicle>
    <vehicle id="677" depart="677.00">
        <route edges="1:0 0:2"/>
    </vehicle>
    <vehicle id="679" depart="679.00">
        <route edges="1:0 0:2"/>
    </vehicle>
    <vehicle id="681" depart="681.00">
        <route edges="7:3 3:1 1:5 5:6"/>
    </vehicle>
    <vehicle id="682" depart="682.00">
        <route edges="7:3 3:1 1:0 0:2"/>
    </vehicle>
    <vehicle id="683" depart="683.00">
        <route edges="3:1 1:0 0:2"/>
    </vehicle>
    <vehicle id="684" depart="684.00">
        <route edges="1:0"/>
    </vehicle>
    <vehicle id="685" depart="685.00">
        <route edges="0:1 1:3 3:7"/>
    </vehicle>
    <vehicle id="687" depart="687.00">
        <route edges="7:3 3:1 1:0"/>
    </vehicle>
    <vehicle id="688" depart="688.00">
        <route edges="0:1 1:3 3:7"/>
    </vehicle>