<?xml version="1.0" encoding="UTF-8"?>

<!-- generated on Thu Feb 13 12:39:41 2014 by SUMO duarouter Version 0.18.0
<?xml version="1.0" encoding="UTF-8"?>

<configuration xmlns:xsi="http://www.w3.org/2001/XMLSchema-instance" xsi:noNamespaceSchemaLocation="http://sumo.sf.net/xsd/duarouterConfiguration.xsd">

    <input>
        <net-file value="simpleT.net.xml"/>
        <trip-files value="experimentos/simpleT.p0.7.8.trips.xml"/>
    </input>

    <output>
        <output-file value="experimentos/simpleT.p0.7.8.rou.xml"/>
    </output>

    <processing>
        <ignore-errors value="true"/>
    </processing>

    <random_number>
        <random value="true"/>
    </random_number>

</configuration>
-->

<routes xmlns:xsi="http://www.w3.org/2001/XMLSchema-instance" xsi:noNamespaceSchemaLocation="http://sumo.sf.net/xsd/routes_file.xsd">
    <vehicle id="1" depart="0.70">
        <route edges="0:1 1:3"/>
    </vehicle>
    <vehicle id="6" depart="4.20">
        <route edges="1:3"/>
    </vehicle>
    <vehicle id="9" depart="6.30">
        <route edges="3:1"/>
    </vehicle>
    <vehicle id="11" depart="7.70">
        <route edges="1:3"/>
    </vehicle>
    <vehicle id="12" depart="8.40">
        <route edges="3:1 1:0 0:2"/>
    </vehicle>
    <vehicle id="13" depart="9.10">
        <route edges="6:5 5:1 1:0 0:2"/>
    </vehicle>
    <vehicle id="17" depart="11.90">
        <route edges="2:0 0:1"/>
    </vehicle>
    <vehicle id="21" depart="14.70">
        <route edges="2:0 0:1 1:3 3:7"/>
    </vehicle>
    <vehicle id="22" depart="15.40">
        <route edges="1:0 0:2"/>
    </vehicle>
    <vehicle id="28" depart="19.60">
        <route edges="0:1 1:3 3:7"/>
    </vehicle>
    <vehicle id="30" depart="21.00">
        <route edges="7:3 3:1 1:0"/>
    </vehicle>
    <vehicle id="31" depart="21.70">
        <route edges="2:0 0:1"/>
    </vehicle>
    <vehicle id="33" depart="23.10">
        <route edges="1:5"/>
    </vehicle>
    <vehicle id="34" depart="23.80">
        <route edges="7:3 3:1 1:0"/>
    </vehicle>
    <vehicle id="37" depart="25.90">
        <route edges="2:0 0:1 1:5"/>
    </vehicle>
    <vehicle id="38" depart="26.60">
        <route edges="1:3"/>
    </vehicle>
    <vehicle id="41" depart="28.70">
        <route edges="0:1"/>
    </vehicle>
    <vehicle id="44" depart="30.80">
        <route edges="7:3 3:1 1:0 0:2"/>
    </vehicle>
    <vehicle id="45" depart="31.50">
        <route edges="2:0 0:1 1:5 5:6"/>
    </vehicle>
    <vehicle id="46" depart="32.20">
        <route edges="7:3 3:1 1:0 0:2"/>
    </vehicle>
    <vehicle id="47" depart="32.90">
        <route edges="2:0 0:1"/>
    </vehicle>
    <vehicle id="49" depart="34.30">
        <route edges="0:1 1:3"/>
    </vehicle>
    <vehicle id="50" depart="35.00">
        <route edges="1:3 3:7"/>
    </vehicle>
    <vehicle id="51" depart="35.70">
        <route edges="0:1 1:3 3:7"/>
    </vehicle>
    <vehicle id="54" depart="37.80">
        <route edges="2:0 0:1 1:3 3:7"/>
    </vehicle>
    <vehicle id="55" depart="38.50">
        <route edges="5:1 1:3 3:7"/>
    </vehicle>
    <vehicle id="58" depart="40.60">
        <route edges="7:3 3:1 1:0 0:2"/>
    </vehicle>
    <vehicle id="60" depart="42.00">
        <route edges="1:3 3:7"/>
    </vehicle>
    <vehicle id="61" depart="42.70">
        <route edges="3:1"/>
    </vehicle>
    <vehicle id="63" depart="44.10">
        <route edges="0:1 1:3 3:7"/>
    </vehicle>
    <vehicle id="64" depart="44.80">
        <route edges="1:3"/>
    </vehicle>
    <vehicle id="65" depart="45.50">
        <route edges="5:1 1:0 0:2"/>
    </vehicle>
    <vehicle id="67" depart="46.90">
        <route edges="1:3 3:7"/>
    </vehicle>
    <vehicle id="68" depart="47.60">
        <route edges="5:1 1:0"/>
    </vehicle>
    <vehicle id="73" depart="51.10">
        <route edges="2:0 0:1 1:3"/>
    </vehicle>
    <vehicle id="79" depart="55.30">
        <route edges="6:5 5:1 1:0"/>
    </vehicle>
    <vehicle id="80" depart="56.00">
        <route edges="2:0 0:1 1:3 3:7"/>
    </vehicle>
    <vehicle id="81" depart="56.70">
        <route edges="3:1"/>
    </vehicle>
    <vehicle id="83" depart="58.10">
        <route edges="3:1 1:0 0:2"/>
    </vehicle>
    <vehicle id="84" depart="58.80">
        <route edges="1:0"/>
    </vehicle>
    <vehicle id="86" depart="60.20">
        <route edges="0:1 1:3 3:7"/>
    </vehicle>
    <vehicle id="87" depart="60.90">
        <route edges="6:5 5:1 1:3 3:7"/>
    </vehicle>
    <vehicle id="88" depart="61.60">
        <route edges="1:0 0:2"/>
    </vehicle>
    <vehicle id="89" depart="62.30">
        <route edges="7:3 3:1 1:5"/>
    </vehicle>
    <vehicle id="91" depart="63.70">
        <route edges="1:3 3:7"/>
    </vehicle>
    <vehicle id="93" depart="65.10">
        <route edges="3:1 1:5"/>
    </vehicle>
    <vehicle id="94" depart="65.80">
        <route edges="1:0"/>
    </vehicle>
    <vehicle id="97" depart="67.90">
        <route edges="2:0 0:1"/>
    </vehicle>
    <vehicle id="101" depart="70.70">
        <route edges="2:0 0:1 1:3 3:7"/>
    </vehicle>
    <vehicle id="105" depart="73.50">
        <route edges="3:1"/>
    </vehicle>
    <vehicle id="106" depart="74.20">
        <route edges="2:0 0:1 1:3"/>
    </vehicle>
    <vehicle id="112" depart="78.40">
        <route edges="6:5 5:1 1:3"/>
    </vehicle>
    <vehicle id="114" depart="79.80">
        <route edges="0:1 1:3"/>
    </vehicle>
    <vehicle id="117" depart="81.90">
        <route edges="7:3 3:1 1:0"/>
    </vehicle>
    <vehicle id="119" depart="83.30">
        <route edges="2:0 0:1 1:5"/>
    </vehicle>
    <vehicle id="120" depart="84.00">
        <route edges="7:3 3:1"/>
    </vehicle>
    <vehicle id="121" depart="84.70">
        <route edges="2:0 0:1 1:3 3:7"/>
    </vehicle>
    <vehicle id="123" depart="86.10">
        <route edges="7:3 3:1 1:5"/>
    </vehicle>
    <vehicle id="125" depart="87.50">
        <route edges="0:1 1:3 3:7"/>
    </vehicle>
    <vehicle id="127" depart="88.90">
        <route edges="2:0 0:1 1:3 3:7"/>
    </vehicle>
    <vehicle id="128" depart="89.60">
        <route edges="3:1 1:0"/>
    </vehicle>
    <vehicle id="129" depart="90.30">
        <route edges="7:3 3:1"/>
    </vehicle>
    <vehicle id="130" depart="91.00">
        <route edges="7:3 3:1 1:0"/>
    </vehicle>
    <vehicle id="134" depart="93.80">
        <route edges="0:1 1:3"/>
    </vehicle>
    <vehicle id="135" depart="94.50">
        <route edges="3:1 1:0 0:2"/>
    </vehicle>
    <vehicle id="137" depart="95.90">
        <route edges="1:3"/>
    </vehicle>
    <vehicle id="138" depart="96.60">
        <route edges="7:3 3:1 1:0 0:2"/>
    </vehicle>
    <vehicle id="143" depart="100.10">
        <route edges="7:3 3:1 1:0 0:2"/>
    </vehicle>
    <vehicle id="144" depart="100.80">
        <route edges="3:1 1:0 0:2"/>
    </vehicle>
    <vehicle id="145" depart="101.50">
        <route edges="7:3 3:1 1:0 0:2"/>
    </vehicle>
    <vehicle id="146" depart="102.20">
        <route edges="3:1 1:0"/>
    </vehicle>
    <vehicle id="147" depart="102.90">
        <route edges="1:0"/>
    </vehicle>
    <vehicle id="149" depart="104.30">
        <route edges="2:0 0:1 1:3 3:7"/>
    </vehicle>
    <vehicle id="154" depart="107.80">
        <route edges="2:0 0:1 1:3 3:7"/>
    </vehicle>
    <vehicle id="155" depart="108.50">
        <route edges="0:1 1:3"/>
    </vehicle>
    <vehicle id="158" depart="110.60">
        <route edges="1:0 0:2"/>
    </vehicle>
    <vehicle id="161" depart="112.70">
        <route edges="2:0 0:1"/>
    </vehicle>
    <vehicle id="163" depart="114.10">
        <route edges="6:5 5:1 1:0 0:2"/>
    </vehicle>
    <vehicle id="166" depart="116.20">
        <route edges="0:1 1:3"/>
    </vehicle>
    <vehicle id="167" depart="116.90">
        <route edges="2:0 0:1 1:3"/>
    </vehicle>
    <vehicle id="168" depart="117.60">
        <route edges="5:1 1:0"/>
    </vehicle>
    <vehicle id="172" depart="120.40">
        <route edges="2:0 0:1 1:3 3:7"/>
    </vehicle>
    <vehicle id="177" depart="123.90">
        <route edges="2:0 0:1 1:3"/>
    </vehicle>
    <vehicle id="178" depart="124.60">
        <route edges="1:0"/>
    </vehicle>
    <vehicle id="182" depart="127.40">
        <route edges="2:0 0:1 1:3 3:7"/>
    </vehicle>
    <vehicle id="184" depart="128.80">
        <route edges="6:5 5:1 1:3 3:7"/>
    </vehicle>
    <vehicle id="186" depart="130.20">
        <route edges="0:1 1:5"/>
    </vehicle>
    <vehicle id="187" depart="130.90">
        <route edges="1:3 3:7"/>
    </vehicle>
    <vehicle id="188" depart="131.60">
        <route edges="6:5 5:1 1:3 3:7"/>
    </vehicle>
    <vehicle id="189" depart="132.30">
        <route edges="2:0 0:1 1:3"/>
    </vehicle>
    <vehicle id="190" depart="133.00">
        <route edges="7:3 3:1 1:5 5:6"/>
    </vehicle>
    <vehicle id="191" depart="133.70">
        <route edges="1:0 0:2"/>
    </vehicle>
    <vehicle id="192" depart="134.40">
        <route edges="1:5"/>
    </vehicle>
    <vehicle id="193" depart="135.10">
        <route edges="2:0 0:1"/>
    </vehicle>
    <vehicle id="195" depart="136.50">
        <route edges="7:3 3:1 1:0"/>
    </vehicle>
    <vehicle id="196" depart="137.20">
        <route edges="1:0"/>
    </vehicle>
    <vehicle id="197" depart="137.90">
        <route edges="7:3 3:1 1:5"/>
    </vehicle>
    <vehicle id="198" depart="138.60">
        <route edges="6:5 5:1 1:0 0:2"/>
    </vehicle>
    <vehicle id="199" depart="139.30">
        <route edges="6:5 5:1 1:0"/>
    </vehicle>
    <vehicle id="200" depart="140.00">
        <route edges="5:1 1:3 3:7"/>
    </vehicle>
    <vehicle id="202" depart="141.40">
        <route edges="3:1"/>
    </vehicle>
    <vehicle id="203" depart="142.10">
        <route edges="1:0"/>
    </vehicle>
    <vehicle id="204" depart="142.80">
        <route edges="1:3 3:7"/>
    </vehicle>
    <vehicle id="206" depart="144.20">
        <route edges="0:1 1:3 3:7"/>
    </vehicle>
    <vehicle id="210" depart="147.00">
        <route edges="3:1 1:5 5:6"/>
    </vehicle>
    <vehicle id="213" depart="149.10">
        <route edges="1:0"/>
    </vehicle>
    <vehicle id="214" depart="149.80">
        <route edges="3:1"/>
    </vehicle>
    <vehicle id="217" depart="151.90">
        <route edges="7:3 3:1 1:5 5:6"/>
    </vehicle>
    <vehicle id="218" depart="152.60">
        <route edges="0:1 1:3 3:7"/>
    </vehicle>
    <vehicle id="219" depart="153.30">
        <route edges="6:5 5:1 1:0 0:2"/>
    </vehicle>
    <vehicle id="222" depart="155.40">
        <route edges="0:1 1:5"/>
    </vehicle>
    <vehicle id="223" depart="156.10">
        <route edges="7:3 3:1"/>
    </vehicle>
    <vehicle id="225" depart="157.50">
        <route edges="2:0 0:1 1:3"/>
    </vehicle>
    <vehicle id="228" depart="159.60">
        <route edges="6:5 5:1 1:0 0:2"/>
    </vehicle>
    <vehicle id="229" depart="160.30">
        <route edges="0:1 1:3 3:7"/>
    </vehicle>
    <vehicle id="230" depart="161.00">
        <route edges="0:1 1:3"/>
    </vehicle>
    <vehicle id="231" depart="161.70">
        <route edges="5:1 1:0"/>
    </vehicle>
    <vehicle id="232" depart="162.40">
        <route edges="5:1 1:0"/>
    </vehicle>
    <vehicle id="233" depart="163.10">
        <route edges="3:1"/>
    </vehicle>
    <vehicle id="234" depart="163.80">
        <route edges="0:1"/>
    </vehicle>
    <vehicle id="239" depart="167.30">
        <route edges="7:3 3:1 1:0 0:2"/>
    </vehicle>
    <vehicle id="242" depart="169.40">
        <route edges="1:0"/>
    </vehicle>
    <vehicle id="244" depart="170.80">
        <route edges="7:3 3:1"/>
    </vehicle>
    <vehicle id="245" depart="171.50">
        <route edges="2:0 0:1 1:3 3:7"/>
    </vehicle>
    <vehicle id="247" depart="172.90">
        <route edges="2:0 0:1 1:3"/>
    </vehicle>
    <vehicle id="250" depart="175.00">
        <route edges="3:1 1:5 5:6"/>
    </vehicle>
    <vehicle id="251" depart="175.70">
        <route edges="1:0"/>
    </vehicle>
    <vehicle id="253" depart="177.10">
        <route edges="5:1 1:3"/>
    </vehicle>
    <vehicle id="254" depart="177.80">
        <route edges="1:0 0:2"/>
    </vehicle>
    <vehicle id="256" depart="179.20">
        <route edges="3:1 1:0"/>
    </vehicle>
    <vehicle id="259" depart="181.30">
        <route edges="5:1 1:0"/>
    </vehicle>
    <vehicle id="261" depart="182.70">
        <route edges="7:3 3:1 1:5"/>
    </vehicle>
    <vehicle id="262" depart="183.40">
        <route edges="2:0 0:1 1:3 3:7"/>
    </vehicle>
    <vehicle id="263" depart="184.10">
        <route edges="1:3 3:7"/>
    </vehicle>
    <vehicle id="265" depart="185.50">
        <route edges="5:1 1:0 0:2"/>
    </vehicle>
    <vehicle id="267" depart="186.90">
        <route edges="2:0 0:1"/>
    </vehicle>
    <vehicle id="271" depart="189.70">
        <route edges="2:0 0:1 1:5 5:6"/>
    </vehicle>
    <vehicle id="275" depart="192.50">
        <route edges="2:0 0:1 1:3"/>
    </vehicle>
    <vehicle id="276" depart="193.20">
        <route edges="7:3 3:1 1:0 0:2"/>
    </vehicle>
    <vehicle id="277" depart="193.90">
        <route edges="2:0 0:1 1:3"/>
    </vehicle>
    <vehicle id="278" depart="194.60">
        <route edges="3:1 1:0 0:2"/>
    </vehicle>
    <vehicle id="280" depart="196.00">
        <route edges="0:1 1:3 3:7"/>
    </vehicle>
    <vehicle id="282" depart="197.40">
        <route edges="5:1 1:0 0:2"/>
    </vehicle>
    <vehicle id="285" depart="199.50">
        <route edges="0:1 1:5"/>
    </vehicle>
    <vehicle id="287" depart="200.90">
        <route edges="7:3 3:1"/>
    </vehicle>
    <vehicle id="288" depart="201.60">
        <route edges="3:1 1:5 5:6"/>
    </vehicle>
    <vehicle id="290" depart="203.00">
        <route edges="3:1 1:0 0:2"/>
    </vehicle>
    <vehicle id="292" depart="204.40">
        <route edges="1:5 5:6"/>
    </vehicle>
    <vehicle id="294" depart="205.80">
        <route edges="0:1"/>
    </vehicle>
    <vehicle id="296" depart="207.20">
        <route edges="7:3 3:1 1:5 5:6"/>
    </vehicle>
    <vehicle id="299" depart="209.30">
        <route edges="6:5 5:1"/>
    </vehicle>
    <vehicle id="301" depart="210.70">
        <route edges="6:5 5:1 1:0 0:2"/>
    </vehicle>
    <vehicle id="303" depart="212.10">
        <route edges="1:3 3:7"/>
    </vehicle>
    <vehicle id="304" depart="212.80">
        <route edges="3:1"/>
    </vehicle>
    <vehicle id="306" depart="214.20">
        <route edges="7:3 3:1 1:0 0:2"/>
    </vehicle>
    <vehicle id="309" depart="216.30">
        <route edges="7:3 3:1 1:0 0:2"/>
    </vehicle>
    <vehicle id="316" depart="221.20">
        <route edges="1:3 3:7"/>
    </vehicle>
    <vehicle id="323" depart="226.10">
        <route edges="2:0 0:1 1:3"/>
    </vehicle>
    <vehicle id="328" depart="229.60">
        <route edges="6:5 5:1 1:0"/>
    </vehicle>
    <vehicle id="331" depart="231.70">
        <route edges="2:0 0:1"/>
    </vehicle>
    <vehicle id="335" depart="234.50">
        <route edges="6:5 5:1 1:3 3:7"/>
    </vehicle>
    <vehicle id="336" depart="235.20">
        <route edges="2:0 0:1 1:3 3:7"/>
    </vehicle>
    <vehicle id="340" depart="238.00">
        <route edges="1:3 3:7"/>
    </vehicle>
    <vehicle id="342" depart="239.40">
        <route edges="7:3 3:1 1:5"/>
    </vehicle>
    <vehicle id="343" depart="240.10">
        <route edges="3:1 1:0 0:2"/>
    </vehicle>
    <vehicle id="344" depart="240.80">
        <route edges="1:0 0:2"/>
    </vehicle>
    <vehicle id="346" depart="242.20">
        <route edges="2:0 0:1 1:5 5:6"/>
    </vehicle>
    <vehicle id="347" depart="242.90">
        <route edges="6:5 5:1 1:0"/>
    </vehicle>
    <vehicle id="349" depart="244.30">
        <route edges="6:5 5:1 1:3"/>
    </vehicle>
    <vehicle id="352" depart="246.40">
        <route edges="5:1 1:3 3:7"/>
    </vehicle>
    <vehicle id="355" depart="248.50">
        <route edges="7:3 3:1"/>
    </vehicle>
    <vehicle id="358" depart="250.60">
        <route edges="1:3"/>
    </vehicle>
    <vehicle id="360" depart="252.00">
        <route edges="0:1"/>
    </vehicle>
    <vehicle id="363" depart="254.10">
        <route edges="7:3 3:1 1:5"/>
    </vehicle>
    <vehicle id="364" depart="254.80">
        <route edges="7:3 3:1 1:0 0:2"/>
    </vehicle>
    <vehicle id="365" depart="255.50">
        <route edges="3:1 1:5 5:6"/>
    </vehicle>
    <vehicle id="369" depart="258.30">
        <route edges="0:1 1:3 3:7"/>
    </vehicle>
    <vehicle id="371" depart="259.70">
        <route edges="3:1 1:0"/>
    </vehicle>
    <vehicle id="372" depart="260.40">
        <route edges="6:5 5:1 1:3"/>
    </vehicle>
    <vehicle id="376" depart="263.20">
        <route edges="7:3 3:1 1:0 0:2"/>
    </vehicle>
    <vehicle id="378" depart="264.60">
        <route edges="3:1 1:0 0:2"/>
    </vehicle>
    <vehicle id="379" depart="265.30">
        <route edges="2:0 0:1 1:3"/>
    </vehicle>
    <vehicle id="380" depart="266.00">
        <route edges="7:3 3:1 1:0"/>
    </vehicle>
    <vehicle id="381" depart="266.70">
        <route edges="2:0 0:1 1:3 3:7"/>
    </vehicle>
    <vehicle id="384" depart="268.80">
        <route edges="0:1 1:3 3:7"/>
    </vehicle>
    <vehicle id="385" depart="269.50">
        <route edges="7:3 3:1 1:0"/>
    </vehicle>
    <vehicle id="386" depart="270.20">
        <route edges="2:0 0:1 1:5 5:6"/>
    </vehicle>
    <vehicle id="387" depart="270.90">
        <route edges="2:0 0:1 1:3 3:7"/>
    </vehicle>
    <vehicle id="392" depart="274.40">
        <route edges="7:3 3:1 1:0"/>
    </vehicle>
    <vehicle id="396" depart="277.20">
        <route edges="1:3 3:7"/>
    </vehicle>
    <vehicle id="400" depart="280.00">
        <route edges="7:3 3:1 1:0 0:2"/>
    </vehicle>
    <vehicle id="402" depart="281.40">
        <route edges="7:3 3:1 1:5 5:6"/>
    </vehicle>
    <vehicle id="403" depart="282.10">
        <route edges="6:5 5:1 1:3"/>
    </vehicle>
    <vehicle id="405" depart="283.50">
        <route edges="0:1 1:3 3:7"/>
    </vehicle>
    <vehicle id="406" depart="284.20">
        <route edges="2:0 0:1 1:5"/>
    </vehicle>
    <vehicle id="407" depart="284.90">
        <route edges="7:3 3:1 1:5"/>
    </vehicle>
    <vehicle id="408" depart="285.60">
        <route edges="1:0 0:2"/>
    </vehicle>
    <vehicle id="409" depart="286.30">
        <route edges="7:3 3:1 1:0 0:2"/>
    </vehicle>
    <vehicle id="412" depart="288.40">
        <route edges="1:0"/>
    </vehicle>
    <vehicle id="415" depart="290.50">
        <route edges="7:3 3:1 1:0 0:2"/>
    </vehicle>
    <vehicle id="417" depart="291.90">
        <route edges="1:3 3:7"/>
    </vehicle>
    <vehicle id="422" depart="295.40">
        <route edges="3:1 1:0 0:2"/>
    </vehicle>
    <vehicle id="423" depart="296.10">
        <route edges="0:1"/>
    </vehicle>
    <vehicle id="424" depart="296.80">
        <route edges="2:0 0:1 1:3 3:7"/>
    </vehicle>
    <vehicle id="426" depart="298.20">
        <route edges="0:1"/>
    </vehicle>
    <vehicle id="427" depart="298.90">
        <route edges="3:1 1:0 0:2"/>
    </vehicle>
    <vehicle id="428" depart="299.60">
        <route edges="5:1 1:3 3:7"/>
    </vehicle>
    <vehicle id="433" depart="303.10">
        <route edges="2:0 0:1 1:5"/>
    </vehicle>
    <vehicle id="435" depart="304.50">
        <route edges="7:3 3:1 1:0 0:2"/>
    </vehicle>
    <vehicle id="436" depart="305.20">
        <route edges="1:3 3:7"/>
    </vehicle>
    <vehicle id="440" depart="308.00">
        <route edges="2:0 0:1 1:3"/>
    </vehicle>
    <vehicle id="442" depart="309.40">
        <route edges="5:1 1:3 3:7"/>
    </vehicle>
    <vehicle id="444" depart="310.80">
        <route edges="3:1 1:0 0:2"/>
    </vehicle>
    <vehicle id="445" depart="311.50">
        <route edges="1:3 3:7"/>
    </vehicle>
    <vehicle id="447" depart="312.90">
        <route edges="2:0 0:1"/>
    </vehicle>
    <vehicle id="450" depart="315.00">
        <route edges="1:5 5:6"/>
    </vehicle>
    <vehicle id="451" depart="315.70">
        <route edges="2:0 0:1 1:3"/>
    </vehicle>
    <vehicle id="453" depart="317.10">
        <route edges="1:0 0:2"/>
    </vehicle>
    <vehicle id="454" depart="317.80">
        <route edges="6:5 5:1 1:3 3:7"/>
    </vehicle>
    <vehicle id="455" depart="318.50">
        <route edges="1:0"/>
    </vehicle>
    <vehicle id="456" depart="319.20">
        <route edges="6:5 5:1 1:3"/>
    </vehicle>
    <vehicle id="458" depart="320.60">
        <route edges="2:0 0:1 1:3 3:7"/>
    </vehicle>
    <vehicle id="459" depart="321.30">
        <route edges="6:5 5:1 1:3"/>
    </vehicle>
    <vehicle id="466" depart="326.20">
        <route edges="2:0 0:1 1:3 3:7"/>
    </vehicle>
    <vehicle id="468" depart="327.60">
        <route edges="7:3 3:1 1:5"/>
    </vehicle>
    <vehicle id="471" depart="329.70">
        <route edges="5:1 1:0 0:2"/>
    </vehicle>
    <vehicle id="472" depart="330.40">
        <route edges="3:1 1:0"/>
    </vehicle>
    <vehicle id="474" depart="331.80">
        <route edges="3:1"/>
    </vehicle>
    <vehicle id="475" depart="332.50">
        <route edges="2:0 0:1 1:3 3:7"/>
    </vehicle>
    <vehicle id="476" depart="333.20">
        <route edges="0:1 1:3 3:7"/>
    </vehicle>
    <vehicle id="477" depart="333.90">
        <route edges="1:3"/>
    </vehicle>
    <vehicle id="482" depart="337.40">
        <route edges="1:0 0:2"/>
    </vehicle>
    <vehicle id="483" depart="338.10">
        <route edges="2:0 0:1 1:5"/>
    </vehicle>
    <vehicle id="486" depart="340.20">
        <route edges="3:1 1:0"/>
    </vehicle>
    <vehicle id="488" depart="341.60">
        <route edges="7:3 3:1 1:5 5:6"/>
    </vehicle>
    <vehicle id="489" depart="342.30">
        <route edges="0:1 1:5 5:6"/>
    </vehicle>
    <vehicle id="490" depart="343.00">
        <route edges="0:1 1:3 3:7"/>
    </vehicle>
    <vehicle id="492" depart="344.40">
        <route edges="1:3 3:7"/>
    </vehicle>
    <vehicle id="493" depart="345.10">
        <route edges="2:0 0:1 1:3"/>
    </vehicle>
    <vehicle id="494" depart="345.80">
        <route edges="2:0 0:1"/>
    </vehicle>
    <vehicle id="496" depart="347.20">
        <route edges="2:0 0:1 1:5 5:6"/>
    </vehicle>
    <vehicle id="497" depart="347.90">
        <route edges="2:0 0:1"/>
    </vehicle>
    <vehicle id="498" depart="348.60">
        <route edges="0:1 1:3"/>
    </vehicle>
    <vehicle id="501" depart="350.70">
        <route edges="7:3 3:1 1:0 0:2"/>
    </vehicle>
    <vehicle id="502" depart="351.40">
        <route edges="1:0"/>
    </vehicle>
    <vehicle id="503" depart="352.10">
        <route edges="1:0"/>
    </vehicle>
    <vehicle id="504" depart="352.80">
        <route edges="6:5 5:1 1:3"/>
    </vehicle>
    <vehicle id="505" depart="353.50">
        <route edges="2:0 0:1 1:3"/>
    </vehicle>
    <vehicle id="507" depart="354.90">
        <route edges="7:3 3:1 1:0"/>
    </vehicle>
    <vehicle id="511" depart="357.70">
        <route edges="7:3 3:1"/>
    </vehicle>
    <vehicle id="512" depart="358.40">
        <route edges="2:0 0:1"/>
    </vehicle>
    <vehicle id="513" depart="359.10">
        <route edges="3:1 1:0 0:2"/>
    </vehicle>
    <vehicle id="514" depart="359.80">
        <route edges="0:1"/>
    </vehicle>
    <vehicle id="515" depart="360.50">
        <route edges="1:3 3:7"/>
    </vehicle>
    <vehicle id="520" depart="364.00">
        <route edges="0:1"/>
    </vehicle>
    <vehicle id="521" depart="364.70">
        <route edges="6:5 5:1 1:0 0:2"/>
    </vehicle>
    <vehicle id="522" depart="365.40">
        <route edges="5:1 1:3 3:7"/>
    </vehicle>
    <vehicle id="523" depart="366.10">
        <route edges="2:0 0:1 1:3"/>
    </vehicle>
    <vehicle id="524" depart="366.80">
        <route edges="3:1 1:0"/>
    </vehicle>
    <vehicle id="527" depart="368.90">
        <route edges="2:0 0:1 1:3 3:7"/>
    </vehicle>
    <vehicle id="528" depart="369.60">
        <route edges="5:1 1:3 3:7"/>
    </vehicle>
    <vehicle id="531" depart="371.70">
        <route edges="5:1 1:3"/>
    </vehicle>
    <vehicle id="533" depart="373.10">
        <route edges="6:5 5:1 1:3 3:7"/>
    </vehicle>
    <vehicle id="534" depart="373.80">
        <route edges="7:3 3:1 1:0 0:2"/>
    </vehicle>
    <vehicle id="535" depart="374.50">
        <route edges="2:0 0:1"/>
    </vehicle>
    <vehicle id="540" depart="378.00">
        <route edges="1:0"/>
    </vehicle>
    <vehicle id="541" depart="378.70">
        <route edges="0:1 1:3 3:7"/>
    </vehicle>
    <vehicle id="543" depart="380.10">
        <route edges="0:1 1:3 3:7"/>
    </vehicle>
    <vehicle id="545" depart="381.50">
        <route edges="7:3 3:1 1:0"/>
    </vehicle>
    <vehicle id="546" depart="382.20">
        <route edges="6:5 5:1 1:0"/>
    </vehicle>
    <vehicle id="547" depart="382.90">
        <route edges="6:5 5:1 1:3 3:7"/>
    </vehicle>
    <vehicle id="548" depart="383.60">
        <route edges="5:1 1:0"/>
    </vehicle>
    <vehicle id="549" depart="384.30">
        <route edges="7:3 3:1 1:0 0:2"/>
    </vehicle>
    <vehicle id="552" depart="386.40">
        <route edges="1:3"/>
    </vehicle>
    <vehicle id="553" depart="387.10">
        <route edges="2:0 0:1 1:5 5:6"/>
    </vehicle>
    <vehicle id="556" depart="389.20">
        <route edges="2:0 0:1 1:3 3:7"/>
    </vehicle>
    <vehicle id="557" depart="389.90">
        <route edges="2:0 0:1 1:3"/>
    </vehicle>
    <vehicle id="558" depart="390.60">
        <route edges="3:1 1:0 0:2"/>
    </vehicle>
    <vehicle id="560" depart="392.00">
        <route edges="6:5 5:1 1:3"/>
    </vehicle>
    <vehicle id="561" depart="392.70">
        <route edges="0:1 1:3 3:7"/>
    </vehicle>
    <vehicle id="562" depart="393.40">
        <route edges="1:0 0:2"/>
    </vehicle>
    <vehicle id="563" depart="394.10">
        <route edges="6:5 5:1 1:0 0:2"/>
    </vehicle>
    <vehicle id="564" depart="394.80">
        <route edges="5:1 1:3 3:7"/>
    </vehicle>
    <vehicle id="565" depart="395.50">
        <route edges="1:0"/>
    </vehicle>
    <vehicle id="566" depart="396.20">
        <route edges="2:0 0:1 1:5 5:6"/>
    </vehicle>
    <vehicle id="567" depart="396.90">
        <route edges="3:1"/>
    </vehicle>
    <vehicle id="568" depart="397.60">
        <route edges="2:0 0:1"/>
    </vehicle>
    <vehicle id="569" depart="398.30">
        <route edges="2:0 0:1 1:5 5:6"/>
    </vehicle>
    <vehicle id="572" depart="400.40">
        <route edges="2:0 0:1 1:3"/>
    </vehicle>
    <vehicle id="573" depart="401.10">
        <route edges="0:1 1:3 3:7"/>
    </vehicle>
    <vehicle id="574" depart="401.80">
        <route edges="0:1 1:3 3:7"/>
    </vehicle>
    <vehicle id="576" depart="403.20">
        <route edges="0:1 1:5 5:6"/>
    </vehicle>
    <vehicle id="578" depart="404.60">
        <route edges="7:3 3:1 1:0 0:2"/>
    </vehicle>
    <vehicle id="579" depart="405.30">
        <route edges="7:3 3:1"/>
    </vehicle>
    <vehicle id="581" depart="406.70">
        <route edges="6:5 5:1 1:0 0:2"/>
    </vehicle>
    <vehicle id="582" depart="407.40">
        <route edges="7:3 3:1"/>
    </vehicle>
    <vehicle id="584" depart="408.80">
        <route edges="2:0 0:1 1:3 3:7"/>
    </vehicle>
    <vehicle id="590" depart="413.00">
        <route edges="7:3 3:1 1:0"/>
    </vehicle>
    <vehicle id="591" depart="413.70">
        <route edges="0:1 1:3 3:7"/>
    </vehicle>
    <vehicle id="594" depart="415.80">
        <route edges="1:5 5:6"/>
    </vehicle>
    <vehicle id="595" depart="416.50">
        <route edges="6:5 5:1 1:0 0:2"/>
    </vehicle>
    <vehicle id="597" depart="417.90">
        <route edges="3:1 1:5 5:6"/>
    </vehicle>
    <vehicle id="600" depart="420.00">
        <route edges="7:3 3:1"/>
    </vehicle>
    <vehicle id="602" depart="421.40">
        <route edges="0:1 1:5 5:6"/>
    </vehicle>
    <vehicle id="603" depart="422.10">
        <route edges="7:3 3:1 1:0 0:2"/>
    </vehicle>
    <vehicle id="604" depart="422.80">
        <route edges="2:0 0:1 1:3 3:7"/>
    </vehicle>
    <vehicle id="605" depart="423.50">
        <route edges="2:0 0:1 1:3 3:7"/>
    </vehicle>
    <vehicle id="607" depart="424.90">
        <route edges="2:0 0:1 1:3 3:7"/>
    </vehicle>
    <vehicle id="609" depart="426.30">
        <route edges="7:3 3:1 1:5 5:6"/>
    </vehicle>
    <vehicle id="610" depart="427.00">
        <route edges="7:3 3:1 1:0"/>
    </vehicle>
    <vehicle id="611" depart="427.70">
        <route edges="7:3 3:1 1:0 0:2"/>
    </vehicle>
    <vehicle id="612" depart="428.40">
        <route edges="2:0 0:1 1:3 3:7"/>
    </vehicle>
    <vehicle id="613" depart="429.10">
        <route edges="7:3 3:1"/>
    </vehicle>
    <vehicle id="614" depart="429.80">
        <route edges="1:0 0:2"/>
    </vehicle>
    <vehicle id="615" depart="430.50">
        <route edges="7:3 3:1 1:0"/>
    </vehicle>
    <vehicle id="623" depart="436.10">
        <route edges="0:1"/>
    </vehicle>
    <vehicle id="624" depart="436.80">
        <route edges="0:1"/>
    </vehicle>
    <vehicle id="628" depart="439.60">
        <route edges="5:1 1:0"/>
    </vehicle>
    <vehicle id="630" depart="441.00">
        <route edges="0:1 1:3 3:7"/>
    </vehicle>
    <vehicle id="631" depart="441.70">
        <route edges="1:3 3:7"/>
    </vehicle>
    <vehicle id="632" depart="442.40">
        <route edges="2:0 0:1 1:3 3:7"/>
    </vehicle>
    <vehicle id="633" depart="443.10">
        <route edges="7:3 3:1"/>
    </vehicle>
    <vehicle id="635" depart="444.50">
        <route edges="7:3 3:1 1:0 0:2"/>
    </vehicle>
    <vehicle id="638" depart="446.60">
        <route edges="2:0 0:1 1:3 3:7"/>
    </vehicle>
    <vehicle id="639" depart="447.30">
        <route edges="3:1 1:5"/>
    </vehicle>
    <vehicle id="641" depart="448.70">
        <route edges="7:3 3:1 1:0"/>