<?xml version="1.0" encoding="UTF-8"?>

<!-- generated on Thu Feb 13 12:39:02 2014 by SUMO duarouter Version 0.18.0
<?xml version="1.0" encoding="UTF-8"?>

<configuration xmlns:xsi="http://www.w3.org/2001/XMLSchema-instance" xsi:noNamespaceSchemaLocation="http://sumo.sf.net/xsd/duarouterConfiguration.xsd">

    <input>
        <net-file value="simpleT.net.xml"/>
        <trip-files value="experimentos/simpleT.p0.4.3.trips.xml"/>
    </input>

    <output>
        <output-file value="experimentos/simpleT.p0.4.3.rou.xml"/>
    </output>

    <processing>
        <ignore-errors value="true"/>
    </processing>

    <random_number>
        <random value="true"/>
    </random_number>

</configuration>
-->

<routes xmlns:xsi="http://www.w3.org/2001/XMLSchema-instance" xsi:noNamespaceSchemaLocation="http://sumo.sf.net/xsd/routes_file.xsd">
    <vehicle id="1" depart="0.40">
        <route edges="2:0 0:1 1:3 3:7"/>
    </vehicle>
    <vehicle id="3" depart="1.20">
        <route edges="3:1 1:0 0:2"/>
    </vehicle>
    <vehicle id="5" depart="2.00">
        <route edges="1:3 3:7"/>
    </vehicle>
    <vehicle id="9" depart="3.60">
        <route edges="1:0"/>
    </vehicle>
    <vehicle id="14" depart="5.60">
        <route edges="0:1 1:3 3:7"/>
    </vehicle>
    <vehicle id="15" depart="6.00">
        <route edges="0:1 1:3 3:7"/>
    </vehicle>
    <vehicle id="16" depart="6.40">
        <route edges="1:0"/>
    </vehicle>
    <vehicle id="18" depart="7.20">
        <route edges="3:1 1:5 5:6"/>
    </vehicle>
    <vehicle id="19" depart="7.60">
        <route edges="2:0 0:1 1:3 3:7"/>
    </vehicle>
    <vehicle id="20" depart="8.00">
        <route edges="7:3 3:1 1:0"/>
    </vehicle>
    <vehicle id="21" depart="8.40">
        <route edges="7:3 3:1 1:5"/>
    </vehicle>
    <vehicle id="26" depart="10.40">
        <route edges="1:0 0:2"/>
    </vehicle>
    <vehicle id="27" depart="10.80">
        <route edges="2:0 0:1 1:3 3:7"/>
    </vehicle>
    <vehicle id="29" depart="11.60">
        <route edges="7:3 3:1 1:0 0:2"/>
    </vehicle>
    <vehicle id="30" depart="12.00">
        <route edges="5:1 1:3 3:7"/>
    </vehicle>
    <vehicle id="34" depart="13.60">
        <route edges="1:3"/>
    </vehicle>
    <vehicle id="35" depart="14.00">
        <route edges="3:1 1:0 0:2"/>
    </vehicle>
    <vehicle id="36" depart="14.40">
        <route edges="0:1"/>
    </vehicle>
    <vehicle id="39" depart="15.60">
        <route edges="2:0 0:1 1:5 5:6"/>
    </vehicle>
    <vehicle id="41" depart="16.40">
        <route edges="6:5 5:1 1:0 0:2"/>
    </vehicle>
    <vehicle id="42" depart="16.80">
        <route edges="2:0 0:1 1:3 3:7"/>
    </vehicle>
    <vehicle id="45" depart="18.00">
        <route edges="1:0"/>
    </vehicle>
    <vehicle id="47" depart="18.80">
        <route edges="2:0 0:1 1:3"/>
    </vehicle>
    <vehicle id="48" depart="19.20">
        <route edges="2:0 0:1"/>
    </vehicle>
    <vehicle id="50" depart="20.00">
        <route edges="1:0"/>
    </vehicle>
    <vehicle id="51" depart="20.40">
        <route edges="2:0 0:1 1:3 3:7"/>
    </vehicle>
    <vehicle id="53" depart="21.20">
        <route edges="1:0 0:2"/>
    </vehicle>
    <vehicle id="55" depart="22.00">
        <route edges="7:3 3:1 1:5"/>
    </vehicle>
    <vehicle id="57" depart="22.80">
        <route edges="1:3 3:7"/>
    </vehicle>
    <vehicle id="58" depart="23.20">
        <route edges="5:1 1:0 0:2"/>
    </vehicle>
    <vehicle id="59" depart="23.60">
        <route edges="7:3 3:1 1:0"/>
    </vehicle>
    <vehicle id="61" depart="24.40">
        <route edges="5:1 1:3 3:7"/>
    </vehicle>
    <vehicle id="63" depart="25.20">
        <route edges="6:5 5:1 1:0"/>
    </vehicle>
    <vehicle id="65" depart="26.00">
        <route edges="7:3 3:1"/>
    </vehicle>
    <vehicle id="66" depart="26.40">
        <route edges="2:0 0:1"/>
    </vehicle>
    <vehicle id="70" depart="28.00">
        <route edges="2:0 0:1 1:3"/>
    </vehicle>
    <vehicle id="71" depart="28.40">
        <route edges="2:0 0:1 1:3 3:7"/>
    </vehicle>
    <vehicle id="74" depart="29.60">
        <route edges="3:1"/>
    </vehicle>
    <vehicle id="75" depart="30.00">
        <route edges="0:1"/>
    </vehicle>
    <vehicle id="76" depart="30.40">
        <route edges="7:3 3:1 1:0 0:2"/>
    </vehicle>
    <vehicle id="77" depart="30.80">
        <route edges="0:1"/>
    </vehicle>
    <vehicle id="79" depart="31.60">
        <route edges="5:1 1:3 3:7"/>
    </vehicle>
    <vehicle id="81" depart="32.40">
        <route edges="3:1 1:5"/>
    </vehicle>
    <vehicle id="83" depart="33.20">
        <route edges="2:0 0:1 1:5 5:6"/>
    </vehicle>
    <vehicle id="85" depart="34.00">
        <route edges="7:3 3:1 1:0 0:2"/>
    </vehicle>
    <vehicle id="86" depart="34.40">
        <route edges="2:0 0:1"/>
    </vehicle>
    <vehicle id="89" depart="35.60">
        <route edges="3:1 1:0"/>
    </vehicle>
    <vehicle id="90" depart="36.00">
        <route edges="2:0 0:1 1:3 3:7"/>
    </vehicle>
    <vehicle id="92" depart="36.80">
        <route edges="1:3 3:7"/>
    </vehicle>
    <vehicle id="93" depart="37.20">
        <route edges="1:3 3:7"/>
    </vehicle>
    <vehicle id="97" depart="38.80">
        <route edges="1:3 3:7"/>
    </vehicle>
    <vehicle id="101" depart="40.40">
        <route edges="7:3 3:1 1:5"/>
    </vehicle>
    <vehicle id="103" depart="41.20">
        <route edges="7:3 3:1 1:0"/>
    </vehicle>
    <vehicle id="105" depart="42.00">
        <route edges="1:0 0:2"/>
    </vehicle>
    <vehicle id="106" depart="42.40">
        <route edges="1:0 0:2"/>
    </vehicle>
    <vehicle id="107" depart="42.80">
        <route edges="2:0 0:1 1:3"/>
    </vehicle>
    <vehicle id="111" depart="44.40">
        <route edges="3:1 1:5"/>
    </vehicle>
    <vehicle id="112" depart="44.80">
        <route edges="6:5 5:1 1:3 3:7"/>
    </vehicle>
    <vehicle id="116" depart="46.40">
        <route edges="6:5 5:1 1:3"/>
    </vehicle>
    <vehicle id="118" depart="47.20">
        <route edges="2:0 0:1 1:5 5:6"/>
    </vehicle>
    <vehicle id="119" depart="47.60">
        <route edges="3:1"/>
    </vehicle>
    <vehicle id="121" depart="48.40">
        <route edges="1:0 0:2"/>
    </vehicle>
    <vehicle id="122" depart="48.80">
        <route edges="7:3 3:1 1:5 5:6"/>
    </vehicle>
    <vehicle id="123" depart="49.20">
        <route edges="2:0 0:1 1:3 3:7"/>
    </vehicle>
    <vehicle id="126" depart="50.40">
        <route edges="3:1 1:0 0:2"/>
    </vehicle>
    <vehicle id="128" depart="51.20">
        <route edges="1:3"/>
    </vehicle>
    <vehicle id="129" depart="51.60">
        <route edges="1:0 0:2"/>
    </vehicle>
    <vehicle id="130" depart="52.00">
        <route edges="2:0 0:1 1:3 3:7"/>
    </vehicle>
    <vehicle id="131" depart="52.40">
        <route edges="0:1 1:3"/>
    </vehicle>
    <vehicle id="133" depart="53.20">
        <route edges="2:0 0:1"/>
    </vehicle>
    <vehicle id="135" depart="54.00">
        <route edges="2:0 0:1 1:3"/>
    </vehicle>
    <vehicle id="141" depart="56.40">
        <route edges="6:5 5:1 1:0 0:2"/>
    </vehicle>
    <vehicle id="147" depart="58.80">
        <route edges="3:1 1:0 0:2"/>
    </vehicle>
    <vehicle id="149" depart="59.60">
        <route edges="3:1 1:0 0:2"/>
    </vehicle>
    <vehicle id="151" depart="60.40">
        <route edges="1:0 0:2"/>
    </vehicle>
    <vehicle id="153" depart="61.20">
        <route edges="7:3 3:1 1:0"/>
    </vehicle>
    <vehicle id="154" depart="61.60">
        <route edges="7:3 3:1"/>
    </vehicle>
    <vehicle id="155" depart="62.00">
        <route edges="1:3 3:7"/>
    </vehicle>
    <vehicle id="156" depart="62.40">
        <route edges="7:3 3:1 1:0"/>
    </vehicle>
    <vehicle id="158" depart="63.20">
        <route edges="5:1"/>
    </vehicle>
    <vehicle id="159" depart="63.60">
        <route edges="7:3 3:1 1:5 5:6"/>
    </vehicle>
    <vehicle id="162" depart="64.80">
        <route edges="0:1 1:3 3:7"/>
    </vehicle>
    <vehicle id="167" depart="66.80">
        <route edges="6:5 5:1 1:3"/>
    </vehicle>
    <vehicle id="168" depart="67.20">
        <route edges="2:0 0:1"/>
    </vehicle>
    <vehicle id="171" depart="68.40">
        <route edges="2:0 0:1"/>
    </vehicle>
    <vehicle id="175" depart="70.00">
        <route edges="2:0 0:1"/>
    </vehicle>
    <vehicle id="182" depart="72.80">
        <route edges="5:1"/>
    </vehicle>
    <vehicle id="183" depart="73.20">
        <route edges="1:0"/>
    </vehicle>
    <vehicle id="184" depart="73.60">
        <route edges="7:3 3:1 1:0"/>
    </vehicle>
    <vehicle id="187" depart="74.80">
        <route edges="0:1 1:5 5:6"/>
    </vehicle>
    <vehicle id="188" depart="75.20">
        <route edges="0:1 1:3 3:7"/>
    </vehicle>
    <vehicle id="189" depart="75.60">
        <route edges="0:1 1:5"/>
    </vehicle>
    <vehicle id="190" depart="76.00">
        <route edges="6:5 5:1 1:3 3:7"/>
    </vehicle>
    <vehicle id="192" depart="76.80">
        <route edges="6:5 5:1 1:3 3:7"/>
    </vehicle>
    <vehicle id="196" depart="78.40">
        <route edges="6:5 5:1"/>
    </vehicle>
    <vehicle id="197" depart="78.80">
        <route edges="7:3 3:1 1:0"/>
    </vehicle>
    <vehicle id="198" depart="79.20">
        <route edges="2:0 0:1 1:5 5:6"/>
    </vehicle>
    <vehicle id="201" depart="80.40">
        <route edges="7:3 3:1 1:5"/>
    </vehicle>
    <vehicle id="205" depart="82.00">
        <route edges="0:1 1:3 3:7"/>
    </vehicle>
    <vehicle id="206" depart="82.40">
        <route edges="6:5 5:1 1:0"/>
    </vehicle>
    <vehicle id="207" depart="82.80">
        <route edges="5:1 1:3"/>
    </vehicle>
    <vehicle id="212" depart="84.80">
        <route edges="6:5 5:1 1:0 0:2"/>
    </vehicle>
    <vehicle id="213" depart="85.20">
        <route edges="2:0 0:1 1:3 3:7"/>
    </vehicle>
    <vehicle id="215" depart="86.00">
        <route edges="7:3 3:1 1:5 5:6"/>
    </vehicle>
    <vehicle id="216" depart="86.40">
        <route edges="2:0 0:1 1:3"/>
    </vehicle>
    <vehicle id="218" depart="87.20">
        <route edges="7:3 3:1 1:5 5:6"/>
    </vehicle>
    <vehicle id="221" depart="88.40">
        <route edges="1:3 3:7"/>
    </vehicle>
    <vehicle id="224" depart="89.60">
        <route edges="6:5 5:1 1:3"/>
    </vehicle>
    <vehicle id="225" depart="90.00">
        <route edges="7:3 3:1 1:0"/>
    </vehicle>
    <vehicle id="227" depart="90.80">
        <route edges="6:5 5:1 1:0 0:2"/>
    </vehicle>
    <vehicle id="228" depart="91.20">
        <route edges="1:0"/>
    </vehicle>
    <vehicle id="230" depart="92.00">
        <route edges="7:3 3:1 1:5"/>
    </vehicle>
    <vehicle id="231" depart="92.40">
        <route edges="1:0 0:2"/>
    </vehicle>
    <vehicle id="232" depart="92.80">
        <route edges="6:5 5:1 1:0 0:2"/>
    </vehicle>
    <vehicle id="233" depart="93.20">
        <route edges="7:3 3:1 1:5 5:6"/>
    </vehicle>
    <vehicle id="234" depart="93.60">
        <route edges="1:0 0:2"/>
    </vehicle>
    <vehicle id="235" depart="94.00">
        <route edges="3:1"/>
    </vehicle>
    <vehicle id="236" depart="94.40">
        <route edges="2:0 0:1 1:3"/>
    </vehicle>
    <vehicle id="237" depart="94.80">
        <route edges="7:3 3:1 1:0 0:2"/>
    </vehicle>
    <vehicle id="238" depart="95.20">
        <route edges="1:0 0:2"/>
    </vehicle>
    <vehicle id="240" depart="96.00">
        <route edges="1:0"/>
    </vehicle>
    <vehicle id="242" depart="96.80">
        <route edges="3:1 1:0 0:2"/>
    </vehicle>
    <vehicle id="244" depart="97.60">
        <route edges="1:0 0:2"/>
    </vehicle>
    <vehicle id="249" depart="99.60">
        <route edges="7:3 3:1"/>
    </vehicle>
    <vehicle id="250" depart="100.00">
        <route edges="6:5 5:1 1:3 3:7"/>
    </vehicle>
    <vehicle id="255" depart="102.00">
        <route edges="0:1 1:5"/>
    </vehicle>
    <vehicle id="256" depart="102.40">
        <route edges="7:3 3:1 1:0 0:2"/>
    </vehicle>
    <vehicle id="257" depart="102.80">
        <route edges="2:0 0:1 1:3 3:7"/>
    </vehicle>
    <vehicle id="259" depart="103.60">
        <route edges="1:0 0:2"/>
    </vehicle>
    <vehicle id="260" depart="104.00">
        <route edges="7:3 3:1"/>
    </vehicle>
    <vehicle id="262" depart="104.80">
        <route edges="6:5 5:1"/>
    </vehicle>
    <vehicle id="264" depart="105.60">
        <route edges="1:3 3:7"/>
    </vehicle>
    <vehicle id="265" depart="106.00">
        <route edges="7:3 3:1 1:0 0:2"/>
    </vehicle>
    <vehicle id="266" depart="106.40">
        <route edges="0:1"/>
    </vehicle>
    <vehicle id="267" depart="106.80">
        <route edges="6:5 5:1"/>
    </vehicle>
    <vehicle id="268" depart="107.20">
        <route edges="1:5 5:6"/>
    </vehicle>
    <vehicle id="272" depart="108.80">
        <route edges="6:5 5:1 1:3 3:7"/>
    </vehicle>
    <vehicle id="276" depart="110.40">
        <route edges="7:3 3:1"/>
    </vehicle>
    <vehicle id="278" depart="111.20">
        <route edges="7:3 3:1 1:5 5:6"/>
    </vehicle>
    <vehicle id="281" depart="112.40">
        <route edges="2:0 0:1 1:3 3:7"/>
    </vehicle>
    <vehicle id="282" depart="112.80">
        <route edges="1:3 3:7"/>
    </vehicle>
    <vehicle id="287" depart="114.80">
        <route edges="0:1 1:3 3:7"/>
    </vehicle>
    <vehicle id="288" depart="115.20">
        <route edges="6:5 5:1 1:3 3:7"/>
    </vehicle>
    <vehicle id="292" depart="116.80">
        <route edges="6:5 5:1"/>
    </vehicle>
    <vehicle id="293" depart="117.20">
        <route edges="7:3 3:1 1:0"/>
    </vehicle>
    <vehicle id="294" depart="117.60">
        <route edges="6:5 5:1 1:0 0:2"/>
    </vehicle>
    <vehicle id="295" depart="118.00">
        <route edges="2:0 0:1"/>
    </vehicle>
    <vehicle id="296" depart="118.40">
        <route edges="7:3 3:1 1:0"/>
    </vehicle>
    <vehicle id="299" depart="119.60">
        <route edges="2:0 0:1 1:3"/>
    </vehicle>
    <vehicle id="300" depart="120.00">
        <route edges="6:5 5:1 1:0"/>
    </vehicle>
    <vehicle id="301" depart="120.40">
        <route edges="2:0 0:1 1:3"/>
    </vehicle>
    <vehicle id="303" depart="121.20">
        <route edges="5:1"/>
    </vehicle>
    <vehicle id="305" depart="122.00">
        <route edges="2:0 0:1 1:3 3:7"/>
    </vehicle>
    <vehicle id="306" depart="122.40">
        <route edges="3:1 1:0 0:2"/>
    </vehicle>
    <vehicle id="311" depart="124.40">
        <route edges="0:1 1:3 3:7"/>
    </vehicle>
    <vehicle id="312" depart="124.80">
        <route edges="0:1 1:3"/>
    </vehicle>
    <vehicle id="315" depart="126.00">
        <route edges="6:5 5:1 1:0"/>
    </vehicle>
    <vehicle id="318" depart="127.20">
        <route edges="0:1 1:5 5:6"/>
    </vehicle>
    <vehicle id="319" depart="127.60">
        <route edges="0:1 1:3 3:7"/>
    </vehicle>
    <vehicle id="322" depart="128.80">
        <route edges="2:0 0:1"/>
    </vehicle>
    <vehicle id="323" depart="129.20">
        <route edges="0:1 1:3 3:7"/>
    </vehicle>
    <vehicle id="324" depart="129.60">
        <route edges="7:3 3:1 1:0 0:2"/>
    </vehicle>
    <vehicle id="327" depart="130.80">
        <route edges="1:3"/>
    </vehicle>
    <vehicle id="329" depart="131.60">
        <route edges="5:1 1:3 3:7"/>
    </vehicle>
    <vehicle id="331" depart="132.40">
        <route edges="3:1 1:0"/>
    </vehicle>
    <vehicle id="334" depart="133.60">
        <route edges="2:0 0:1 1:3 3:7"/>
    </vehicle>
    <vehicle id="336" depart="134.40">
        <route edges="6:5 5:1 1:3 3:7"/>
    </vehicle>
    <vehicle id="337" depart="134.80">
        <route edges="1:0"/>
    </vehicle>
    <vehicle id="338" depart="135.20">
        <route edges="6:5 5:1 1:0 0:2"/>
    </vehicle>
    <vehicle id="339" depart="135.60">
        <route edges="2:0 0:1 1:3"/>
    </vehicle>
    <vehicle id="344" depart="137.60">
        <route edges="1:5"/>
    </vehicle>
    <vehicle id="348" depart="139.20">
        <route edges="2:0 0:1"/>
    </vehicle>
    <vehicle id="350" depart="140.00">
        <route edges="7:3 3:1 1:0 0:2"/>
    </vehicle>
    <vehicle id="351" depart="140.40">
        <route edges="2:0 0:1 1:3"/>
    </vehicle>
    <vehicle id="354" depart="141.60">
        <route edges="6:5 5:1 1:3 3:7"/>
    </vehicle>
    <vehicle id="356" depart="142.40">
        <route edges="6:5 5:1 1:3 3:7"/>
    </vehicle>
    <vehicle id="358" depart="143.20">
        <route edges="1:0 0:2"/>
    </vehicle>
    <vehicle id="359" depart="143.60">
        <route edges="2:0 0:1"/>
    </vehicle>
    <vehicle id="360" depart="144.00">
        <route edges="2:0 0:1 1:5 5:6"/>
    </vehicle>
    <vehicle id="361" depart="144.40">
        <route edges="1:3 3:7"/>
    </vehicle>
    <vehicle id="363" depart="145.20">
        <route edges="0:1 1:5"/>
    </vehicle>
    <vehicle id="364" depart="145.60">
        <route edges="2:0 0:1"/>
    </vehicle>
    <vehicle id="367" depart="146.80">
        <route edges="0:1 1:3"/>
    </vehicle>
    <vehicle id="368" depart="147.20">
        <route edges="5:1"/>
    </vehicle>
    <vehicle id="370" depart="148.00">
        <route edges="7:3 3:1 1:5 5:6"/>
    </vehicle>
    <vehicle id="373" depart="149.20">
        <route edges="7:3 3:1 1:0"/>
    </vehicle>
    <vehicle id="376" depart="150.40">
        <route edges="7:3 3:1"/>
    </vehicle>
    <vehicle id="377" depart="150.80">
        <route edges="7:3 3:1 1:0"/>
    </vehicle>
    <vehicle id="378" depart="151.20">
        <route edges="2:0 0:1 1:3"/>
    </vehicle>
    <vehicle id="380" depart="152.00">
        <route edges="3:1 1:5"/>
    </vehicle>
    <vehicle id="384" depart="153.60">
        <route edges="5:1 1:0 0:2"/>
    </vehicle>
    <vehicle id="386" depart="154.40">
        <route edges="2:0 0:1"/>
    </vehicle>
    <vehicle id="387" depart="154.80">
        <route edges="0:1 1:3"/>
    </vehicle>
    <vehicle id="388" depart="155.20">
        <route edges="2:0 0:1 1:3"/>
    </vehicle>
    <vehicle id="391" depart="156.40">
        <route edges="2:0 0:1"/>
    </vehicle>
    <vehicle id="393" depart="157.20">
        <route edges="0:1 1:3 3:7"/>
    </vehicle>
    <vehicle id="394" depart="157.60">
        <route edges="7:3 3:1 1:0 0:2"/>
    </vehicle>
    <vehicle id="399" depart="159.60">
        <route edges="0:1 1:3 3:7"/>
    </vehicle>
    <vehicle id="402" depart="160.80">
        <route edges="7:3 3:1 1:0 0:2"/>
    </vehicle>
    <vehicle id="403" depart="161.20">
        <route edges="3:1"/>
    </vehicle>
    <vehicle id="404" depart="161.60">
        <route edges="7:3 3:1 1:0 0:2"/>
    </vehicle>
    <vehicle id="406" depart="162.40">
        <route edges="2:0 0:1 1:3 3:7"/>
    </vehicle>
    <vehicle id="408" depart="163.20">
        <route edges="6:5 5:1 1:0 0:2"/>
    </vehicle>
    <vehicle id="410" depart="164.00">
        <route edges="2:0 0:1"/>
    </vehicle>
    <vehicle id="415" depart="166.00">
        <route edges="1:3 3:7"/>
    </vehicle>
    <vehicle id="416" depart="166.40">
        <route edges="1:0"/>
    </vehicle>
    <vehicle id="417" depart="166.80">
        <route edges="7:3 3:1 1:5"/>
    </vehicle>
    <vehicle id="419" depart="167.60">
        <route edges="3:1 1:0"/>
    </vehicle>
    <vehicle id="420" depart="168.00">
        <route edges="0:1"/>
    </vehicle>
    <vehicle id="421" depart="168.40">
        <route edges="7:3 3:1 1:5 5:6"/>
    </vehicle>
    <vehicle id="424" depart="169.60">
        <route edges="7:3 3:1 1:0 0:2"/>
    </vehicle>
    <vehicle id="426" depart="170.40">
        <route edges="7:3 3:1 1:0 0:2"/>
    </vehicle>
    <vehicle id="428" depart="171.20">
        <route edges="5:1 1:3 3:7"/>
    </vehicle>
    <vehicle id="430" depart="172.00">
        <route edges="2:0 0:1 1:5 5:6"/>
    </vehicle>
    <vehicle id="431" depart="172.40">
        <route edges="7:3 3:1 1:0"/>
    </vehicle>
    <vehicle id="433" depart="173.20">
        <route edges="0:1 1:3 3:7"/>
    </vehicle>
    <vehicle id="439" depart="175.60">
        <route edges="3:1 1:0"/>
    </vehicle>
    <vehicle id="440" depart="176.00">
        <route edges="7:3 3:1 1:0"/>
    </vehicle>
    <vehicle id="441" depart="176.40">
        <route edges="0:1 1:3"/>
    </vehicle>
    <vehicle id="442" depart="176.80">
        <route edges="2:0 0:1 1:3 3:7"/>
    </vehicle>
    <vehicle id="445" depart="178.00">
        <route edges="3:1 1:5 5:6"/>
    </vehicle>
    <vehicle id="447" depart="178.80">
        <route edges="1:5"/>
    </vehicle>
    <vehicle id="448" depart="179.20">
        <route edges="0:1 1:3"/>
    </vehicle>
    <vehicle id="449" depart="179.60">
        <route edges="7:3 3:1 1:0 0:2"/>
    </vehicle>
    <vehicle id="453" depart="181.20">
        <route edges="3:1 1:0 0:2"/>
    </vehicle>
    <vehicle id="454" depart="181.60">
        <route edges="2:0 0:1"/>
    </vehicle>
    <vehicle id="456" depart="182.40">
        <route edges="6:5 5:1"/>
    </vehicle>
    <vehicle id="459" depart="183.60">
        <route edges="3:1 1:0"/>
    </vehicle>
    <vehicle id="460" depart="184.00">
        <route edges="6:5 5:1 1:0"/>
    </vehicle>
    <vehicle id="463" depart="185.20">
        <route edges="2:0 0:1 1:3"/>
    </vehicle>
    <vehicle id="464" depart="185.60">
        <route edges="2:0 0:1 1:5 5:6"/>
    </vehicle>
    <vehicle id="465" depart="186.00">
        <route edges="7:3 3:1 1:0 0:2"/>
    </vehicle>
    <vehicle id="466" depart="186.40">
        <route edges="1:0"/>
    </vehicle>
    <vehicle id="471" depart="188.40">
        <route edges="2:0 0:1"/>
    </vehicle>
    <vehicle id="473" depart="189.20">
        <route edges="6:5 5:1 1:3"/>
    </vehicle>
    <vehicle id="474" depart="189.60">
        <route edges="0:1 1:3 3:7"/>
    </vehicle>
    <vehicle id="477" depart="190.80">
        <route edges="5:1 1:0 0:2"/>
    </vehicle>
    <vehicle id="479" depart="191.60">
        <route edges="7:3 3:1 1:5 5:6"/>
    </vehicle>
    <vehicle id="485" depart="194.00">
        <route edges="2:0 0:1 1:3 3:7"/>
    </vehicle>
    <vehicle id="487" depart="194.80">
        <route edges="7:3 3:1"/>
    </vehicle>
    <vehicle id="488" depart="195.20">
        <route edges="2:0 0:1 1:5 5:6"/>
    </vehicle>
    <vehicle id="489" depart="195.60">
        <route edges="0:1 1:3"/>
    </vehicle>
    <vehicle id="490" depart="196.00">
        <route edges="6:5 5:1 1:3"/>
    </vehicle>
    <vehicle id="494" depart="197.60">
        <route edges="2:0 0:1 1:3"/>
    </vehicle>
    <vehicle id="495" depart="198.00">
        <route edges="0:1 1:3 3:7"/>
    </vehicle>
    <vehicle id="496" depart="198.40">
        <route edges="6:5 5:1"/>
    </vehicle>
    <vehicle id="497" depart="198.80">
        <route edges="2:0 0:1"/>
    </vehicle>
    <vehicle id="498" depart="199.20">
        <route edges="3:1 1:0 0:2"/>
    </vehicle>
    <vehicle id="501" depart="200.40">
        <route edges="3:1 1:0"/>
    </vehicle>
    <vehicle id="502" depart="200.80">
        <route edges="1:0 0:2"/>
    </vehicle>
    <vehicle id="505" depart="202.00">
        <route edges="7:3 3:1 1:0 0:2"/>
    </vehicle>
    <vehicle id="506" depart="202.40">
        <route edges="7:3 3:1 1:0"/>
    </vehicle>
    <vehicle id="507" depart="202.80">
        <route edges="5:1 1:0 0:2"/>
    </vehicle>
    <vehicle id="511" depart="204.40">
        <route edges="7:3 3:1"/>
    </vehicle>
    <vehicle id="512" depart="204.80">
        <route edges="6:5 5:1 1:0 0:2"/>
    </vehicle>
    <vehicle id="513" depart="205.20">
        <route edges="2:0 0:1 1:5 5:6"/>
    </vehicle>
    <vehicle id="514" depart="205.60">
        <route edges="2:0 0:1"/>
    </vehicle>
    <vehicle id="518" depart="207.20">
        <route edges="6:5 5:1 1:3"/>
    </vehicle>
    <vehicle id="519" depart="207.60">
        <route edges="6:5 5:1 1:3"/>
    </vehicle>
    <vehicle id="522" depart="208.80">
        <route edges="6:5 5:1 1:3 3:7"/>
    </vehicle>
    <vehicle id="523" depart="209.20">
        <route edges="6:5 5:1 1:0 0:2"/>
    </vehicle>
    <vehicle id="524" depart="209.60">
        <route edges="0:1 1:3 3:7"/>
    </vehicle>
    <vehicle id="525" depart="210.00">
        <route edges="7:3 3:1 1:0 0:2"/>
    </vehicle>
    <vehicle id="526" depart="210.40">
        <route edges="5:1 1:3"/>
    </vehicle>
    <vehicle id="528" depart="211.20">
        <route edges="7:3 3:1 1:0"/>
    </vehicle>
    <vehicle id="529" depart="211.60">
        <route edges="7:3 3:1 1:0 0:2"/>
    </vehicle>
    <vehicle id="532" depart="212.80">
        <route edges="1:0 0:2"/>
    </vehicle>
    <vehicle id="538" depart="215.20">
        <route edges="3:1 1:0"/>
    </vehicle>
    <vehicle id="539" depart="215.60">
        <route edges="2:0 0:1 1:3 3:7"/>
    </vehicle>
    <vehicle id="541" depart="216.40">
        <route edges="1:5"/>
    </vehicle>
    <vehicle id="542" depart="216.80">
        <route edges="3:1 1:0 0:2"/>
    </vehicle>
    <vehicle id="544" depart="217.60">
        <route edges="6:5 5:1 1:3"/>
    </vehicle>
    <vehicle id="545" depart="218.00">
        <route edges="6:5 5:1 1:0 0:2"/>
    </vehicle>
    <vehicle id="546" depart="218.40">
        <route edges="7:3 3:1 1:0 0:2"/>
    </vehicle>
    <vehicle id="548" depart="219.20">
        <route edges="7:3 3:1 1:0 0:2"/>
    </vehicle>
    <vehicle id="551" depart="220.40">
        <route edges="6:5 5:1 1:0"/>
    </vehicle>
    <vehicle id="552" depart="220.80">
        <route edges="0:1 1:3 3:7"/>
    </vehicle>
    <vehicle id="553" depart="221.20">
        <route edges="2:0 0:1 1:5 5:6"/>
    </vehicle>
    <vehicle id="555" depart="222.00">
        <route edges="7:3 3:1 1:5"/>
    </vehicle>
    <vehicle id="557" depart="222.80">
        <route edges="7:3 3:1 1:5"/>
    </vehicle>
    <vehicle id="558" depart="223.20">
        <route edges="7:3 3:1"/>
    </vehicle>
    <vehicle id="559" depart="223.60">
        <route edges="3:1 1:0"/>
    </vehicle>
    <vehicle id="561" depart="224.40">
        <route edges="0:1 1:3"/>
    </vehicle>
    <vehicle id="565" depart="226.00">
        <route edges="2:0 0:1 1:5 5:6"/>
    </vehicle>
    <vehicle id="569" depart="227.60">
        <route edges="7:3 3:1 1:0 0:2"/>
    </vehicle>
    <vehicle id="570" depart="228.00">
        <route edges="0:1 1:3 3:7"/>
    </vehicle>
    <vehicle id="571" depart="228.40">
        <route edges="7:3 3:1 1:0"/>
    </vehicle>
    <vehicle id="575" depart="230.00">
        <route edges="2:0 0:1 1:3"/>
    </vehicle>
    <vehicle id="576" depart="230.40">
        <route edges="7:3 3:1 1:0 0:2"/>
    </vehicle>
    <vehicle id="577" depart="230.80">
        <route edges="5:1 1:3"/>
    </vehicle>
    <vehicle id="578" depart="231.20">
        <route edges="1:3 3:7"/>
    </vehicle>
    <vehicle id="579" depart="231.60">
        <route edges="7:3 3:1 1:0"/>
    </vehicle>
    <vehicle id="580" depart="232.00">
        <route edges="6:5 5:1 1:0 0:2"/>
    </vehicle>
    <vehicle id="584" depart="233.60">
        <route edges="5:1 1:3 3:7"/>
    </vehicle>
    <vehicle id="586" depart="234.40">
        <route edges="3:1"/>
    </vehicle>
    <vehicle id="587" depart="234.80">
        <route edges="0:1"/>
    </vehicle>
    <vehicle id="589" depart="235.60">
        <route edges="7:3 3:1"/>
    </vehicle>
    <vehicle id="590" depart="236.00">
        <route edges="2:0 0:1 1:5 5:6"/>
    </vehicle>
    <vehicle id="591" depart="236.40">
        <route edges="1:0"/>
    </vehicle>
    <vehicle id="592" depart="236.80">
        <route edges="2:0 0:1 1:3 3:7"/>
    </vehicle>
    <vehicle id="593" depart="237.20">
        <route edges="7:3 3:1 1:5 5:6"/>
    </vehicle>
    <vehicle id="595" depart="238.00">
        <route edges="1:3"/>
    </vehicle>
    <vehicle id="597" depart="238.80">
        <route edges="7:3 3:1 1:5 5:6"/>
    </vehicle>
    <vehicle id="598" depart="239.20">
        <route edges="1:0"/>
    </vehicle>
    <vehicle id="600" depart="240.00">
        <route edges="3:1"/>
    </vehicle>
    <vehicle id="602" depart="240.80">
        <route edges="7:3 3:1 1:0"/>
    </vehicle>
    <vehicle id="603" depart="241.20">
        <route edges="7:3 3:1 1:5 5:6"/>
    </vehicle>
    <vehicle id="604" depart="241.60">
        <route edges="2:0 0:1"/>
    </vehicle>
    <vehicle id="608" depart="243.20">
        <route edges="3:1 1:0 0:2"/>
    </vehicle>
    <vehicle id="612" depart="244.80">
        <route edges="2:0 0:1 1:3"/>
    </vehicle>
    <vehicle id="613" depart="245.20">
        <route edges="3:1 1:5"/>
    </vehicle>
    <vehicle id="614" depart="245.60">
        <route edges="0:1"/>
    </vehicle>
    <vehicle id="615" depart="246.00">
        <route edges="7:3 3:1 1:0"/>
    </vehicle>
    <vehicle id="618" depart="247.20">
        <route edges="3:1 1:0 0:2"/>
    </vehicle>
    <vehicle id="627" depart="250.80">
        <route edges="1:3 3:7"/>
    </vehicle>
    <vehicle id="629" depart="251.60">
        <route edges="7:3 3:1 1:0 0:2"/>
    </vehicle>
    <vehicle id="630" depart="252.00">
        <route edges="1:3 3:7"/>
    </vehicle>
    <vehicle id="632" depart="252.80">
        <route edges="2:0 0:1 1:3"/>
    </vehicle>
    <vehicle id="635" depart="254.00">
        <route edges="7:3 3:1 1:0"/>
    </vehicle>
    <vehicle id="636" depart="254.40">
        <route edges="2:0 0:1 1:3 3:7"/>
    </vehicle>
    <vehicle id="639" depart="255.60">
        <route edges="1:0 0:2"/>
    </vehicle>
    <vehicle id="641" depart="256.40">
        <route edges="3:1 1:0"/>
    </vehicle>
    <vehicle id="642" depart="256.80">
        <route edges="7:3 3:1 1:5"/>
    </vehicle>
    <vehicle id="643" depart="257.20">
        <route edges="1:3 3:7"/>
    </vehicle>
    <vehicle id="646" depart="258.40">
        <route edges="1:0 0:2"/>
    </vehicle>
    <vehicle id="647" depart="258.80">
        <route edges="7:3 3:1 1:0 0:2"/>