<?xml version="1.0" encoding="UTF-8"?>

<!-- generated on Thu Feb 13 12:39:05 2014 by SUMO duarouter Version 0.18.0
<?xml version="1.0" encoding="UTF-8"?>

<configuration xmlns:xsi="http://www.w3.org/2001/XMLSchema-instance" xsi:noNamespaceSchemaLocation="http://sumo.sf.net/xsd/duarouterConfiguration.xsd">

    <input>
        <net-file value="simpleT.net.xml"/>
        <trip-files value="experimentos/simpleT.p0.4.4.trips.xml"/>
    </input>

    <output>
        <output-file value="experimentos/simpleT.p0.4.4.rou.xml"/>
    </output>

    <processing>
        <ignore-errors value="true"/>
    </processing>

    <random_number>
        <random value="true"/>
    </random_number>

</configuration>
-->

<routes xmlns:xsi="http://www.w3.org/2001/XMLSchema-instance" xsi:noNamespaceSchemaLocation="http://sumo.sf.net/xsd/routes_file.xsd">
    <vehicle id="1" depart="0.40">
        <route edges="2:0 0:1 1:5 5:6"/>
    </vehicle>
    <vehicle id="4" depart="1.60">
        <route edges="3:1"/>
    </vehicle>
    <vehicle id="8" depart="3.20">
        <route edges="3:1 1:0 0:2"/>
    </vehicle>
    <vehicle id="10" depart="4.00">
        <route edges="7:3 3:1 1:5 5:6"/>
    </vehicle>
    <vehicle id="18" depart="7.20">
        <route edges="2:0 0:1 1:3"/>
    </vehicle>
    <vehicle id="20" depart="8.00">
        <route edges="5:1 1:0"/>
    </vehicle>
    <vehicle id="22" depart="8.80">
        <route edges="7:3 3:1 1:0"/>
    </vehicle>
    <vehicle id="23" depart="9.20">
        <route edges="5:1 1:3"/>
    </vehicle>
    <vehicle id="25" depart="10.00">
        <route edges="7:3 3:1 1:0"/>
    </vehicle>
    <vehicle id="30" depart="12.00">
        <route edges="7:3 3:1 1:5"/>
    </vehicle>
    <vehicle id="32" depart="12.80">
        <route edges="3:1 1:5"/>
    </vehicle>
    <vehicle id="33" depart="13.20">
        <route edges="7:3 3:1 1:0"/>
    </vehicle>
    <vehicle id="38" depart="15.20">
        <route edges="1:0 0:2"/>
    </vehicle>
    <vehicle id="40" depart="16.00">
        <route edges="2:0 0:1 1:3 3:7"/>
    </vehicle>
    <vehicle id="41" depart="16.40">
        <route edges="0:1 1:3 3:7"/>
    </vehicle>
    <vehicle id="42" depart="16.80">
        <route edges="2:0 0:1 1:3 3:7"/>
    </vehicle>
    <vehicle id="47" depart="18.80">
        <route edges="6:5 5:1 1:0 0:2"/>
    </vehicle>
    <vehicle id="48" depart="19.20">
        <route edges="6:5 5:1 1:0 0:2"/>
    </vehicle>
    <vehicle id="49" depart="19.60">
        <route edges="6:5 5:1 1:0"/>
    </vehicle>
    <vehicle id="50" depart="20.00">
        <route edges="5:1 1:3 3:7"/>
    </vehicle>
    <vehicle id="54" depart="21.60">
        <route edges="2:0 0:1 1:5 5:6"/>
    </vehicle>
    <vehicle id="55" depart="22.00">
        <route edges="3:1 1:5"/>
    </vehicle>
    <vehicle id="57" depart="22.80">
        <route edges="7:3 3:1 1:0 0:2"/>
    </vehicle>
    <vehicle id="59" depart="23.60">
        <route edges="7:3 3:1"/>
    </vehicle>
    <vehicle id="61" depart="24.40">
        <route edges="6:5 5:1 1:3 3:7"/>
    </vehicle>
    <vehicle id="64" depart="25.60">
        <route edges="7:3 3:1 1:0"/>
    </vehicle>
    <vehicle id="66" depart="26.40">
        <route edges="1:3 3:7"/>
    </vehicle>
    <vehicle id="68" depart="27.20">
        <route edges="0:1 1:5 5:6"/>
    </vehicle>
    <vehicle id="71" depart="28.40">
        <route edges="1:0"/>
    </vehicle>
    <vehicle id="74" depart="29.60">
        <route edges="3:1 1:0 0:2"/>
    </vehicle>
    <vehicle id="75" depart="30.00">
        <route edges="7:3 3:1"/>
    </vehicle>
    <vehicle id="76" depart="30.40">
        <route edges="2:0 0:1 1:5 5:6"/>
    </vehicle>
    <vehicle id="78" depart="31.20">
        <route edges="7:3 3:1 1:5 5:6"/>
    </vehicle>
    <vehicle id="81" depart="32.40">
        <route edges="2:0 0:1 1:3 3:7"/>
    </vehicle>
    <vehicle id="82" depart="32.80">
        <route edges="7:3 3:1 1:0"/>
    </vehicle>
    <vehicle id="83" depart="33.20">
        <route edges="1:0"/>
    </vehicle>
    <vehicle id="84" depart="33.60">
        <route edges="7:3 3:1 1:5"/>
    </vehicle>
    <vehicle id="85" depart="34.00">
        <route edges="3:1 1:0 0:2"/>
    </vehicle>
    <vehicle id="86" depart="34.40">
        <route edges="2:0 0:1"/>
    </vehicle>
    <vehicle id="88" depart="35.20">
        <route edges="2:0 0:1 1:5 5:6"/>
    </vehicle>
    <vehicle id="90" depart="36.00">
        <route edges="7:3 3:1 1:0 0:2"/>
    </vehicle>
    <vehicle id="93" depart="37.20">
        <route edges="2:0 0:1 1:3 3:7"/>
    </vehicle>
    <vehicle id="94" depart="37.60">
        <route edges="1:3 3:7"/>
    </vehicle>
    <vehicle id="97" depart="38.80">
        <route edges="1:5"/>
    </vehicle>
    <vehicle id="100" depart="40.00">
        <route edges="2:0 0:1"/>
    </vehicle>
    <vehicle id="105" depart="42.00">
        <route edges="0:1 1:5 5:6"/>
    </vehicle>
    <vehicle id="107" depart="42.80">
        <route edges="7:3 3:1"/>
    </vehicle>
    <vehicle id="108" depart="43.20">
        <route edges="7:3 3:1 1:0 0:2"/>
    </vehicle>
    <vehicle id="118" depart="47.20">
        <route edges="2:0 0:1 1:5 5:6"/>
    </vehicle>
    <vehicle id="119" depart="47.60">
        <route edges="3:1 1:0 0:2"/>
    </vehicle>
    <vehicle id="120" depart="48.00">
        <route edges="3:1 1:5"/>
    </vehicle>
    <vehicle id="121" depart="48.40">
        <route edges="7:3 3:1 1:5 5:6"/>
    </vehicle>
    <vehicle id="126" depart="50.40">
        <route edges="1:0 0:2"/>
    </vehicle>
    <vehicle id="129" depart="51.60">
        <route edges="6:5 5:1 1:3 3:7"/>
    </vehicle>
    <vehicle id="130" depart="52.00">
        <route edges="7:3 3:1 1:0"/>
    </vehicle>
    <vehicle id="132" depart="52.80">
        <route edges="6:5 5:1 1:0"/>
    </vehicle>
    <vehicle id="133" depart="53.20">
        <route edges="2:0 0:1 1:3"/>
    </vehicle>
    <vehicle id="134" depart="53.60">
        <route edges="2:0 0:1 1:5"/>
    </vehicle>
    <vehicle id="135" depart="54.00">
        <route edges="6:5 5:1 1:0 0:2"/>
    </vehicle>
    <vehicle id="138" depart="55.20">
        <route edges="6:5 5:1 1:0 0:2"/>
    </vehicle>
    <vehicle id="140" depart="56.00">
        <route edges="3:1 1:0"/>
    </vehicle>
    <vehicle id="142" depart="56.80">
        <route edges="2:0 0:1 1:3"/>
    </vehicle>
    <vehicle id="144" depart="57.60">
        <route edges="2:0 0:1 1:5 5:6"/>
    </vehicle>
    <vehicle id="146" depart="58.40">
        <route edges="5:1"/>
    </vehicle>
    <vehicle id="149" depart="59.60">
        <route edges="2:0 0:1 1:3"/>
    </vehicle>
    <vehicle id="151" depart="60.40">
        <route edges="7:3 3:1 1:0"/>
    </vehicle>
    <vehicle id="155" depart="62.00">
        <route edges="2:0 0:1 1:3 3:7"/>
    </vehicle>
    <vehicle id="157" depart="62.80">
        <route edges="6:5 5:1 1:0 0:2"/>
    </vehicle>
    <vehicle id="158" depart="63.20">
        <route edges="7:3 3:1"/>
    </vehicle>
    <vehicle id="159" depart="63.60">
        <route edges="1:5 5:6"/>
    </vehicle>
    <vehicle id="161" depart="64.40">
        <route edges="2:0 0:1 1:5"/>
    </vehicle>
    <vehicle id="163" depart="65.20">
        <route edges="1:3"/>
    </vehicle>
    <vehicle id="165" depart="66.00">
        <route edges="3:1"/>
    </vehicle>
    <vehicle id="167" depart="66.80">
        <route edges="0:1 1:3 3:7"/>
    </vehicle>
    <vehicle id="171" depart="68.40">
        <route edges="6:5 5:1 1:3 3:7"/>
    </vehicle>
    <vehicle id="172" depart="68.80">
        <route edges="7:3 3:1 1:0 0:2"/>
    </vehicle>
    <vehicle id="176" depart="70.40">
        <route edges="5:1"/>
    </vehicle>
    <vehicle id="179" depart="71.60">
        <route edges="2:0 0:1 1:3 3:7"/>
    </vehicle>
    <vehicle id="180" depart="72.00">
        <route edges="2:0 0:1 1:3 3:7"/>
    </vehicle>
    <vehicle id="181" depart="72.40">
        <route edges="7:3 3:1 1:0"/>
    </vehicle>
    <vehicle id="184" depart="73.60">
        <route edges="6:5 5:1 1:3 3:7"/>
    </vehicle>
    <vehicle id="187" depart="74.80">
        <route edges="7:3 3:1 1:5 5:6"/>
    </vehicle>
    <vehicle id="188" depart="75.20">
        <route edges="2:0 0:1"/>
    </vehicle>
    <vehicle id="189" depart="75.60">
        <route edges="6:5 5:1 1:3"/>
    </vehicle>
    <vehicle id="193" depart="77.20">
        <route edges="7:3 3:1"/>
    </vehicle>
    <vehicle id="200" depart="80.00">
        <route edges="2:0 0:1 1:3 3:7"/>
    </vehicle>
    <vehicle id="203" depart="81.20">
        <route edges="1:0 0:2"/>
    </vehicle>
    <vehicle id="204" depart="81.60">
        <route edges="3:1 1:0 0:2"/>
    </vehicle>
    <vehicle id="205" depart="82.00">
        <route edges="2:0 0:1 1:3"/>
    </vehicle>
    <vehicle id="206" depart="82.40">
        <route edges="2:0 0:1 1:5 5:6"/>
    </vehicle>
    <vehicle id="207" depart="82.80">
        <route edges="6:5 5:1 1:3 3:7"/>
    </vehicle>
    <vehicle id="210" depart="84.00">
        <route edges="2:0 0:1 1:3 3:7"/>
    </vehicle>
    <vehicle id="212" depart="84.80">
        <route edges="0:1 1:3 3:7"/>
    </vehicle>
    <vehicle id="213" depart="85.20">
        <route edges="5:1 1:0"/>
    </vehicle>
    <vehicle id="214" depart="85.60">
        <route edges="2:0 0:1 1:3"/>
    </vehicle>
    <vehicle id="215" depart="86.00">
        <route edges="7:3 3:1 1:0 0:2"/>
    </vehicle>
    <vehicle id="216" depart="86.40">
        <route edges="7:3 3:1 1:0 0:2"/>
    </vehicle>
    <vehicle id="218" depart="87.20">
        <route edges="1:3 3:7"/>
    </vehicle>
    <vehicle id="219" depart="87.60">
        <route edges="6:5 5:1"/>
    </vehicle>
    <vehicle id="221" depart="88.40">
        <route edges="5:1 1:3 3:7"/>
    </vehicle>
    <vehicle id="223" depart="89.20">
        <route edges="0:1 1:5"/>
    </vehicle>
    <vehicle id="225" depart="90.00">
        <route edges="0:1 1:3 3:7"/>
    </vehicle>
    <vehicle id="230" depart="92.00">
        <route edges="6:5 5:1 1:3"/>
    </vehicle>
    <vehicle id="231" depart="92.40">
        <route edges="2:0 0:1 1:5"/>
    </vehicle>
    <vehicle id="234" depart="93.60">
        <route edges="2:0 0:1"/>
    </vehicle>
    <vehicle id="235" depart="94.00">
        <route edges="1:3 3:7"/>
    </vehicle>
    <vehicle id="239" depart="95.60">
        <route edges="1:3"/>
    </vehicle>
    <vehicle id="240" depart="96.00">
        <route edges="6:5 5:1 1:0 0:2"/>
    </vehicle>
    <vehicle id="243" depart="97.20">
        <route edges="1:0 0:2"/>
    </vehicle>
    <vehicle id="244" depart="97.60">
        <route edges="2:0 0:1 1:3 3:7"/>
    </vehicle>
    <vehicle id="246" depart="98.40">
        <route edges="1:0"/>
    </vehicle>
    <vehicle id="248" depart="99.20">
        <route edges="7:3 3:1"/>
    </vehicle>
    <vehicle id="249" depart="99.60">
        <route edges="2:0 0:1 1:3 3:7"/>
    </vehicle>
    <vehicle id="250" depart="100.00">
        <route edges="6:5 5:1 1:3 3:7"/>
    </vehicle>
    <vehicle id="252" depart="100.80">
        <route edges="2:0 0:1 1:3"/>
    </vehicle>
    <vehicle id="253" depart="101.20">
        <route edges="1:3"/>
    </vehicle>
    <vehicle id="254" depart="101.60">
        <route edges="5:1 1:0 0:2"/>
    </vehicle>
    <vehicle id="256" depart="102.40">
        <route edges="0:1 1:3"/>
    </vehicle>
    <vehicle id="262" depart="104.80">
        <route edges="7:3 3:1"/>
    </vehicle>
    <vehicle id="266" depart="106.40">
        <route edges="6:5 5:1 1:0 0:2"/>
    </vehicle>
    <vehicle id="269" depart="107.60">
        <route edges="0:1"/>
    </vehicle>
    <vehicle id="271" depart="108.40">
        <route edges="2:0 0:1 1:3"/>
    </vehicle>
    <vehicle id="277" depart="110.80">
        <route edges="0:1"/>
    </vehicle>
    <vehicle id="284" depart="113.60">
        <route edges="7:3 3:1 1:0"/>
    </vehicle>
    <vehicle id="287" depart="114.80">
        <route edges="2:0 0:1"/>
    </vehicle>
    <vehicle id="291" depart="116.40">
        <route edges="7:3 3:1 1:0 0:2"/>
    </vehicle>
    <vehicle id="296" depart="118.40">
        <route edges="0:1 1:5 5:6"/>
    </vehicle>
    <vehicle id="298" depart="119.20">
        <route edges="6:5 5:1 1:3 3:7"/>
    </vehicle>
    <vehicle id="299" depart="119.60">
        <route edges="5:1 1:0 0:2"/>
    </vehicle>
    <vehicle id="300" depart="120.00">
        <route edges="6:5 5:1 1:3 3:7"/>
    </vehicle>
    <vehicle id="303" depart="121.20">
        <route edges="2:0 0:1 1:5 5:6"/>
    </vehicle>
    <vehicle id="304" depart="121.60">
        <route edges="1:0"/>
    </vehicle>
    <vehicle id="307" depart="122.80">
        <route edges="2:0 0:1 1:3 3:7"/>
    </vehicle>
    <vehicle id="308" depart="123.20">
        <route edges="1:0"/>
    </vehicle>
    <vehicle id="311" depart="124.40">
        <route edges="3:1"/>
    </vehicle>
    <vehicle id="312" depart="124.80">
        <route edges="5:1 1:0 0:2"/>
    </vehicle>
    <vehicle id="315" depart="126.00">
        <route edges="0:1 1:3"/>
    </vehicle>
    <vehicle id="318" depart="127.20">
        <route edges="7:3 3:1 1:0 0:2"/>
    </vehicle>
    <vehicle id="320" depart="128.00">
        <route edges="0:1"/>
    </vehicle>
    <vehicle id="321" depart="128.40">
        <route edges="3:1 1:5"/>
    </vehicle>
    <vehicle id="324" depart="129.60">
        <route edges="2:0 0:1 1:5"/>
    </vehicle>
    <vehicle id="328" depart="131.20">
        <route edges="7:3 3:1"/>
    </vehicle>
    <vehicle id="329" depart="131.60">
        <route edges="0:1 1:3 3:7"/>
    </vehicle>
    <vehicle id="330" depart="132.00">
        <route edges="1:3"/>
    </vehicle>
    <vehicle id="333" depart="133.20">
        <route edges="2:0 0:1"/>
    </vehicle>
    <vehicle id="334" depart="133.60">
        <route edges="2:0 0:1 1:3 3:7"/>
    </vehicle>
    <vehicle id="336" depart="134.40">
        <route edges="7:3 3:1 1:0 0:2"/>
    </vehicle>
    <vehicle id="342" depart="136.80">
        <route edges="7:3 3:1"/>
    </vehicle>
    <vehicle id="343" depart="137.20">
        <route edges="1:5 5:6"/>
    </vehicle>
    <vehicle id="344" depart="137.60">
        <route edges="2:0 0:1 1:3 3:7"/>
    </vehicle>
    <vehicle id="348" depart="139.20">
        <route edges="5:1 1:0 0:2"/>
    </vehicle>
    <vehicle id="353" depart="141.20">
        <route edges="2:0 0:1 1:3"/>
    </vehicle>
    <vehicle id="357" depart="142.80">
        <route edges="1:3"/>
    </vehicle>
    <vehicle id="358" depart="143.20">
        <route edges="7:3 3:1 1:0 0:2"/>
    </vehicle>
    <vehicle id="359" depart="143.60">
        <route edges="2:0 0:1 1:5 5:6"/>
    </vehicle>
    <vehicle id="361" depart="144.40">
        <route edges="7:3 3:1 1:5 5:6"/>
    </vehicle>
    <vehicle id="362" depart="144.80">
        <route edges="2:0 0:1 1:5 5:6"/>
    </vehicle>
    <vehicle id="363" depart="145.20">
        <route edges="6:5 5:1 1:3 3:7"/>
    </vehicle>
    <vehicle id="364" depart="145.60">
        <route edges="3:1 1:0"/>
    </vehicle>
    <vehicle id="365" depart="146.00">
        <route edges="1:0"/>
    </vehicle>
    <vehicle id="367" depart="146.80">
        <route edges="2:0 0:1"/>
    </vehicle>
    <vehicle id="368" depart="147.20">
        <route edges="5:1 1:0"/>
    </vehicle>
    <vehicle id="370" depart="148.00">
        <route edges="3:1 1:5 5:6"/>
    </vehicle>
    <vehicle id="373" depart="149.20">
        <route edges="2:0 0:1 1:3"/>
    </vehicle>
    <vehicle id="376" depart="150.40">
        <route edges="2:0 0:1"/>
    </vehicle>
    <vehicle id="377" depart="150.80">
        <route edges="7:3 3:1 1:5 5:6"/>
    </vehicle>
    <vehicle id="383" depart="153.20">
        <route edges="1:0"/>
    </vehicle>
    <vehicle id="384" depart="153.60">
        <route edges="3:1 1:0 0:2"/>
    </vehicle>
    <vehicle id="386" depart="154.40">
        <route edges="6:5 5:1 1:3 3:7"/>
    </vehicle>
    <vehicle id="391" depart="156.40">
        <route edges="7:3 3:1 1:0 0:2"/>
    </vehicle>
    <vehicle id="394" depart="157.60">
        <route edges="7:3 3:1 1:0"/>
    </vehicle>
    <vehicle id="395" depart="158.00">
        <route edges="2:0 0:1 1:3 3:7"/>
    </vehicle>
    <vehicle id="396" depart="158.40">
        <route edges="7:3 3:1 1:5 5:6"/>
    </vehicle>
    <vehicle id="397" depart="158.80">
        <route edges="2:0 0:1 1:3"/>
    </vehicle>
    <vehicle id="400" depart="160.00">
        <route edges="7:3 3:1 1:0 0:2"/>
    </vehicle>
    <vehicle id="403" depart="161.20">
        <route edges="5:1 1:3 3:7"/>
    </vehicle>
    <vehicle id="404" depart="161.60">
        <route edges="3:1 1:0 0:2"/>
    </vehicle>
    <vehicle id="406" depart="162.40">
        <route edges="3:1"/>
    </vehicle>
    <vehicle id="407" depart="162.80">
        <route edges="0:1 1:3"/>
    </vehicle>
    <vehicle id="409" depart="163.60">
        <route edges="0:1 1:3 3:7"/>
    </vehicle>
    <vehicle id="411" depart="164.40">
        <route edges="7:3 3:1 1:0 0:2"/>
    </vehicle>
    <vehicle id="414" depart="165.60">
        <route edges="2:0 0:1 1:3"/>
    </vehicle>
    <vehicle id="415" depart="166.00">
        <route edges="2:0 0:1 1:3 3:7"/>
    </vehicle>
    <vehicle id="417" depart="166.80">
        <route edges="2:0 0:1 1:3 3:7"/>
    </vehicle>
    <vehicle id="419" depart="167.60">
        <route edges="2:0 0:1 1:3 3:7"/>
    </vehicle>
    <vehicle id="421" depart="168.40">
        <route edges="0:1 1:5 5:6"/>
    </vehicle>
    <vehicle id="422" depart="168.80">
        <route edges="3:1 1:0"/>
    </vehicle>
    <vehicle id="423" depart="169.20">
        <route edges="0:1"/>
    </vehicle>
    <vehicle id="425" depart="170.00">
        <route edges="5:1"/>
    </vehicle>
    <vehicle id="427" depart="170.80">
        <route edges="2:0 0:1 1:3 3:7"/>
    </vehicle>
    <vehicle id="428" depart="171.20">
        <route edges="7:3 3:1 1:0"/>
    </vehicle>
    <vehicle id="429" depart="171.60">
        <route edges="1:3"/>
    </vehicle>
    <vehicle id="430" depart="172.00">
        <route edges="3:1 1:5 5:6"/>
    </vehicle>
    <vehicle id="431" depart="172.40">
        <route edges="0:1 1:3 3:7"/>
    </vehicle>
    <vehicle id="442" depart="176.80">
        <route edges="6:5 5:1 1:3"/>
    </vehicle>
    <vehicle id="443" depart="177.20">
        <route edges="0:1 1:5 5:6"/>
    </vehicle>
    <vehicle id="445" depart="178.00">
        <route edges="5:1 1:0"/>
    </vehicle>
    <vehicle id="446" depart="178.40">
        <route edges="1:0"/>
    </vehicle>
    <vehicle id="447" depart="178.80">
        <route edges="2:0 0:1 1:5"/>
    </vehicle>
    <vehicle id="449" depart="179.60">
        <route edges="2:0 0:1 1:3 3:7"/>
    </vehicle>
    <vehicle id="451" depart="180.40">
        <route edges="2:0 0:1 1:5"/>
    </vehicle>
    <vehicle id="452" depart="180.80">
        <route edges="0:1"/>
    </vehicle>
    <vehicle id="453" depart="181.20">
        <route edges="1:3 3:7"/>
    </vehicle>
    <vehicle id="454" depart="181.60">
        <route edges="0:1 1:5 5:6"/>
    </vehicle>
    <vehicle id="455" depart="182.00">
        <route edges="1:0"/>
    </vehicle>
    <vehicle id="459" depart="183.60">
        <route edges="2:0 0:1 1:3 3:7"/>
    </vehicle>
    <vehicle id="460" depart="184.00">
        <route edges="0:1 1:3"/>
    </vehicle>
    <vehicle id="463" depart="185.20">
        <route edges="0:1 1:3"/>
    </vehicle>
    <vehicle id="464" depart="185.60">
        <route edges="2:0 0:1 1:3"/>
    </vehicle>
    <vehicle id="469" depart="187.60">
        <route edges="7:3 3:1 1:0 0:2"/>
    </vehicle>
    <vehicle id="470" depart="188.00">
        <route edges="0:1"/>
    </vehicle>
    <vehicle id="471" depart="188.40">
        <route edges="2:0 0:1"/>
    </vehicle>
    <vehicle id="473" depart="189.20">
        <route edges="1:3"/>
    </vehicle>
    <vehicle id="474" depart="189.60">
        <route edges="1:3 3:7"/>
    </vehicle>
    <vehicle id="476" depart="190.40">
        <route edges="7:3 3:1 1:0 0:2"/>
    </vehicle>
    <vehicle id="482" depart="192.80">
        <route edges="3:1"/>
    </vehicle>
    <vehicle id="484" depart="193.60">
        <route edges="6:5 5:1 1:0 0:2"/>
    </vehicle>
    <vehicle id="487" depart="194.80">
        <route edges="7:3 3:1 1:0"/>
    </vehicle>
    <vehicle id="488" depart="195.20">
        <route edges="6:5 5:1 1:0 0:2"/>
    </vehicle>
    <vehicle id="491" depart="196.40">
        <route edges="7:3 3:1 1:0 0:2"/>
    </vehicle>
    <vehicle id="494" depart="197.60">
        <route edges="7:3 3:1 1:5"/>
    </vehicle>
    <vehicle id="496" depart="198.40">
        <route edges="7:3 3:1 1:0 0:2"/>
    </vehicle>
    <vehicle id="497" depart="198.80">
        <route edges="1:0"/>
    </vehicle>
    <vehicle id="498" depart="199.20">
        <route edges="2:0 0:1 1:5"/>
    </vehicle>
    <vehicle id="500" depart="200.00">
        <route edges="3:1 1:5 5:6"/>
    </vehicle>
    <vehicle id="501" depart="200.40">
        <route edges="2:0 0:1 1:3"/>
    </vehicle>
    <vehicle id="503" depart="201.20">
        <route edges="2:0 0:1 1:3 3:7"/>
    </vehicle>
    <vehicle id="504" depart="201.60">
        <route edges="3:1 1:5 5:6"/>
    </vehicle>
    <vehicle id="506" depart="202.40">
        <route edges="6:5 5:1 1:0 0:2"/>
    </vehicle>
    <vehicle id="508" depart="203.20">
        <route edges="3:1 1:5 5:6"/>
    </vehicle>
    <vehicle id="509" depart="203.60">
        <route edges="2:0 0:1"/>
    </vehicle>
    <vehicle id="513" depart="205.20">
        <route edges="7:3 3:1 1:0"/>
    </vehicle>
    <vehicle id="514" depart="205.60">
        <route edges="2:0 0:1 1:3 3:7"/>
    </vehicle>
    <vehicle id="517" depart="206.80">
        <route edges="0:1"/>
    </vehicle>
    <vehicle id="521" depart="208.40">
        <route edges="7:3 3:1"/>
    </vehicle>
    <vehicle id="523" depart="209.20">
        <route edges="2:0 0:1 1:5 5:6"/>
    </vehicle>
    <vehicle id="527" depart="210.80">
        <route edges="7:3 3:1 1:0"/>
    </vehicle>
    <vehicle id="529" depart="211.60">
        <route edges="0:1"/>
    </vehicle>
    <vehicle id="533" depart="213.20">
        <route edges="2:0 0:1 1:3"/>
    </vehicle>
    <vehicle id="535" depart="214.00">
        <route edges="7:3 3:1 1:0 0:2"/>
    </vehicle>
    <vehicle id="540" depart="216.00">
        <route edges="7:3 3:1 1:0"/>
    </vehicle>
    <vehicle id="542" depart="216.80">
        <route edges="1:5"/>
    </vehicle>
    <vehicle id="544" depart="217.60">
        <route edges="5:1 1:0 0:2"/>
    </vehicle>
    <vehicle id="545" depart="218.00">
        <route edges="3:1 1:5"/>
    </vehicle>
    <vehicle id="546" depart="218.40">
        <route edges="3:1 1:5 5:6"/>
    </vehicle>
    <vehicle id="551" depart="220.40">
        <route edges="1:3 3:7"/>
    </vehicle>
    <vehicle id="552" depart="220.80">
        <route edges="7:3 3:1 1:5"/>
    </vehicle>
    <vehicle id="557" depart="222.80">
        <route edges="1:0"/>
    </vehicle>
    <vehicle id="558" depart="223.20">
        <route edges="1:3 3:7"/>
    </vehicle>
    <vehicle id="559" depart="223.60">
        <route edges="7:3 3:1 1:5 5:6"/>
    </vehicle>
    <vehicle id="560" depart="224.00">
        <route edges="2:0 0:1 1:3"/>
    </vehicle>
    <vehicle id="562" depart="224.80">
        <route edges="3:1 1:0"/>
    </vehicle>
    <vehicle id="566" depart="226.40">
        <route edges="1:3"/>
    </vehicle>
    <vehicle id="568" depart="227.20">
        <route edges="0:1 1:3 3:7"/>
    </vehicle>
    <vehicle id="571" depart="228.40">
        <route edges="7:3 3:1"/>
    </vehicle>
    <vehicle id="573" depart="229.20">
        <route edges="2:0 0:1 1:5"/>
    </vehicle>
    <vehicle id="576" depart="230.40">
        <route edges="3:1 1:5 5:6"/>
    </vehicle>
    <vehicle id="577" depart="230.80">
        <route edges="2:0 0:1 1:3 3:7"/>
    </vehicle>
    <vehicle id="582" depart="232.80">
        <route edges="7:3 3:1 1:0"/>
    </vehicle>
    <vehicle id="583" depart="233.20">
        <route edges="6:5 5:1 1:3 3:7"/>
    </vehicle>
    <vehicle id="584" depart="233.60">
        <route edges="0:1 1:3"/>
    </vehicle>
    <vehicle id="585" depart="234.00">
        <route edges="1:0"/>
    </vehicle>
    <vehicle id="590" depart="236.00">
        <route edges="2:0 0:1 1:5 5:6"/>
    </vehicle>
    <vehicle id="593" depart="237.20">
        <route edges="1:0 0:2"/>
    </vehicle>
    <vehicle id="595" depart="238.00">
        <route edges="2:0 0:1 1:3 3:7"/>
    </vehicle>
    <vehicle id="596" depart="238.40">
        <route edges="2:0 0:1"/>
    </vehicle>
    <vehicle id="602" depart="240.80">
        <route edges="2:0 0:1 1:3 3:7"/>
    </vehicle>
    <vehicle id="603" depart="241.20">
        <route edges="2:0 0:1 1:3 3:7"/>
    </vehicle>
    <vehicle id="604" depart="241.60">
        <route edges="7:3 3:1 1:0 0:2"/>
    </vehicle>
    <vehicle id="605" depart="242.00">
        <route edges="7:3 3:1 1:0 0:2"/>
    </vehicle>
    <vehicle id="607" depart="242.80">
        <route edges="7:3 3:1"/>
    </vehicle>
    <vehicle id="609" depart="243.60">
        <route edges="0:1 1:3"/>
    </vehicle>
    <vehicle id="610" depart="244.00">
        <route edges="2:0 0:1 1:5"/>
    </vehicle>
    <vehicle id="613" depart="245.20">
        <route edges="2:0 0:1 1:3 3:7"/>
    </vehicle>
    <vehicle id="614" depart="245.60">
        <route edges="2:0 0:1 1:3"/>
    </vehicle>
    <vehicle id="622" depart="248.80">
        <route edges="0:1 1:3 3:7"/>
    </vehicle>
    <vehicle id="623" depart="249.20">
        <route edges="2:0 0:1 1:3 3:7"/>
    </vehicle>
    <vehicle id="624" depart="249.60">
        <route edges="3:1"/>
    </vehicle>
    <vehicle id="625" depart="250.00">
        <route edges="5:1 1:3"/>
    </vehicle>
    <vehicle id="626" depart="250.40">
        <route edges="2:0 0:1"/>
    </vehicle>
    <vehicle id="629" depart="251.60">
        <route edges="6:5 5:1 1:3 3:7"/>
    </vehicle>
    <vehicle id="631" depart="252.40">
        <route edges="2:0 0:1 1:5 5:6"/>
    </vehicle>
    <vehicle id="633" depart="253.20">
        <route edges="6:5 5:1 1:3"/>
    </vehicle>
    <vehicle id="638" depart="255.20">
        <route edges="3:1 1:0"/>
    </vehicle>
    <vehicle id="641" depart="256.40">
        <route edges="6:5 5:1 1:3"/>
    </vehicle>
    <vehicle id="642" depart="256.80">
        <route edges="0:1 1:3 3:7"/>
    </vehicle>
    <vehicle id="643" depart="257.20">
        <route edges="1:5 5:6"/>
    </vehicle>
    <vehicle id="644" depart="257.60">
        <route edges="7:3 3:1"/>
    </vehicle>
    <vehicle id="645" depart="258.00">
        <route edges="6:5 5:1 1:0 0:2"/>
    </vehicle>
    <vehicle id="646" depart="258.40">
        <route edges="6:5 5:1 1:0 0:2"/>
    </vehicle>
    <vehicle id="649" depart="259.60">
        <route edges="6:5 5:1 1:3 3:7"/>
    </vehicle>
    <vehicle id="650" depart="260.00">
        <route edges="0:1 1:3 3:7"/>
    </vehicle>
    <vehicle id="651" depart="260.40">
        <route edges="2:0 0:1"/>
    </vehicle>
    <vehicle id="652" depart="260.80">
        <route edges="0:1 1:3 3:7"/>
    </vehicle>
    <vehicle id="657" depart="262.80">
        <route edges="7:3 3:1 1:5 5:6"/>
    </vehicle>
    <vehicle id="660" depart="264.00">
        <route edges="7:3 3:1 1:0 0:2"/>
    </vehicle>
    <vehicle id="664" depart="265.60">
        <route edges="0:1 1:3 3:7"/>
    </vehicle>
    <vehicle id="665" depart="266.00">
        <route edges="7:3 3:1 1:0 0:2"/>
    </vehicle>
    <vehicle id="666" depart="266.40">
        <route edges="2:0 0:1 1:3"/>
    </vehicle>
    <vehicle id="668" depart="267.20">
        <route edges="7:3 3:1 1:0 0:2"/>
    </vehicle>
    <vehicle id="670" depart="268.00">
        <route edges="2:0 0:1"/>
    </vehicle>
    <vehicle id="671" depart="268.40">
        <route edges="3:1 1:0"/>
    </vehicle>
    <vehicle id="674" depart="269.60">
        <route edges="2:0 0:1"/>
    </vehicle>
    <vehicle id="675" depart="270.00">
        <route edges="1:0 0:2"/>
    </vehicle>
    <vehicle id="678" depart="271.20">
        <route edges="6:5 5:1 1:3 3:7"/>
    </vehicle>
    <vehicle id="679" depart="271.60">
        <route edges="7:3 3:1 1:0 0:2"/>
    </vehicle>
    <vehicle id="681" depart="272.40">
        <route edges="5:1 1:3 3:7"/>
    </vehicle>
    <vehicle id="687" depart="274.80">
        <route edges="2:0 0:1 1:5"/>
    </vehicle>
    <vehicle id="690" depart="276.00">
        <route edges="0:1"/>
    </vehicle>
    <vehicle id="695" depart="278.00">
        <route edges="2:0 0:1 1:5 5:6"/>
    </vehicle>
    <vehicle id="696" depart="278.40">
        <route edges="1:0 0:2"/>
    </vehicle>
    <vehicle id="697" depart="278.80">
        <route edges="7:3 3:1 1:0"/>
    </vehicle>
    <vehicle id="700" depart="280.00">
        <route edges="0:1"/>
    </vehicle>
    <vehicle id="701" depart="280.40">
        <route edges="7:3 3:1 1:5"/>
    </vehicle>
    <vehicle id="702" depart="280.80">
        <route edges="2:0 0:1 1:5 5:6"/>
    </vehicle>
    <vehicle id="705" depart="282.00">
        <route edges="0:1 1:3 3:7"/>
    </vehicle>
    <vehicle id="708" depart="283.20">
        <route edges="2:0 0:1 1:5"/>
    </vehicle>
    <vehicle id="709" depart="283.60">
        <route edges="3:1 1:5 5:6"/>
    </vehicle>
    <vehicle id="710" depart="284.00">
        <route edges="0:1 1:3"/>
    </vehicle>
    <vehicle id="712" depart="284.80">
        <route edges="1:3 3:7"/>
    </vehicle>
    <vehicle id="713" depart="285.20">
        <route edges="5:1 1:0 0:2"/>
    </vehicle>
    <vehicle id="714" depart="285.60">
        <route edges="7:3 3:1 1:5"/>
    </vehicle>
    <vehicle id="719" depart="287.60">
        <route edges="2:0 0:1"/>
    </vehicle>
    <vehicle id="721" depart="288.40">
        <route edges="0:1 1:5 5:6"/>
    </vehicle>
    <vehicle id="722" depart="288.80">