<?xml version="1.0" encoding="UTF-8"?>

<!-- generated on Thu Feb 13 12:39:59 2014 by SUMO duarouter Version 0.18.0
<?xml version="1.0" encoding="UTF-8"?>

<configuration xmlns:xsi="http://www.w3.org/2001/XMLSchema-instance" xsi:noNamespaceSchemaLocation="http://sumo.sf.net/xsd/duarouterConfiguration.xsd">

    <input>
        <net-file value="simpleT.net.xml"/>
        <trip-files value="experimentos/simpleT.p1.0.8.trips.xml"/>
    </input>

    <output>
        <output-file value="experimentos/simpleT.p1.0.8.rou.xml"/>
    </output>

    <processing>
        <ignore-errors value="true"/>
    </processing>

    <random_number>
        <random value="true"/>
    </random_number>

</configuration>
-->

<routes xmlns:xsi="http://www.w3.org/2001/XMLSchema-instance" xsi:noNamespaceSchemaLocation="http://sumo.sf.net/xsd/routes_file.xsd">
    <vehicle id="0" depart="0.00">
        <route edges="7:3 3:1 1:5 5:6"/>
    </vehicle>
    <vehicle id="2" depart="2.00">
        <route edges="6:5 5:1 1:3 3:7"/>
    </vehicle>
    <vehicle id="3" depart="3.00">
        <route edges="0:1 1:5 5:6"/>
    </vehicle>
    <vehicle id="6" depart="6.00">
        <route edges="5:1"/>
    </vehicle>
    <vehicle id="10" depart="10.00">
        <route edges="0:1"/>
    </vehicle>
    <vehicle id="11" depart="11.00">
        <route edges="1:3"/>
    </vehicle>
    <vehicle id="14" depart="14.00">
        <route edges="2:0 0:1"/>
    </vehicle>
    <vehicle id="15" depart="15.00">
        <route edges="2:0 0:1 1:3"/>
    </vehicle>
    <vehicle id="16" depart="16.00">
        <route edges="1:3"/>
    </vehicle>
    <vehicle id="17" depart="17.00">
        <route edges="0:1 1:3 3:7"/>
    </vehicle>
    <vehicle id="19" depart="19.00">
        <route edges="7:3 3:1 1:0"/>
    </vehicle>
    <vehicle id="20" depart="20.00">
        <route edges="2:0 0:1 1:3"/>
    </vehicle>
    <vehicle id="22" depart="22.00">
        <route edges="7:3 3:1"/>
    </vehicle>
    <vehicle id="23" depart="23.00">
        <route edges="0:1 1:3 3:7"/>
    </vehicle>
    <vehicle id="25" depart="25.00">
        <route edges="5:1 1:0"/>
    </vehicle>
    <vehicle id="27" depart="27.00">
        <route edges="1:3"/>
    </vehicle>
    <vehicle id="28" depart="28.00">
        <route edges="1:0 0:2"/>
    </vehicle>
    <vehicle id="29" depart="29.00">
        <route edges="7:3 3:1 1:5"/>
    </vehicle>
    <vehicle id="30" depart="30.00">
        <route edges="2:0 0:1 1:5 5:6"/>
    </vehicle>
    <vehicle id="31" depart="31.00">
        <route edges="7:3 3:1 1:0 0:2"/>
    </vehicle>
    <vehicle id="32" depart="32.00">
        <route edges="2:0 0:1 1:3"/>
    </vehicle>
    <vehicle id="33" depart="33.00">
        <route edges="0:1 1:3 3:7"/>
    </vehicle>
    <vehicle id="34" depart="34.00">
        <route edges="7:3 3:1 1:0 0:2"/>
    </vehicle>
    <vehicle id="35" depart="35.00">
        <route edges="1:3 3:7"/>
    </vehicle>
    <vehicle id="36" depart="36.00">
        <route edges="3:1"/>
    </vehicle>
    <vehicle id="38" depart="38.00">
        <route edges="0:1 1:3 3:7"/>
    </vehicle>
    <vehicle id="41" depart="41.00">
        <route edges="5:1 1:0 0:2"/>
    </vehicle>
    <vehicle id="42" depart="42.00">
        <route edges="0:1 1:5"/>
    </vehicle>
    <vehicle id="43" depart="43.00">
        <route edges="6:5 5:1 1:0"/>
    </vehicle>
    <vehicle id="44" depart="44.00">
        <route edges="2:0 0:1 1:3 3:7"/>
    </vehicle>
    <vehicle id="45" depart="45.00">
        <route edges="7:3 3:1 1:5 5:6"/>
    </vehicle>
    <vehicle id="48" depart="48.00">
        <route edges="2:0 0:1 1:5"/>
    </vehicle>
    <vehicle id="50" depart="50.00">
        <route edges="7:3 3:1"/>
    </vehicle>
    <vehicle id="52" depart="52.00">
        <route edges="2:0 0:1"/>
    </vehicle>
    <vehicle id="53" depart="53.00">
        <route edges="3:1 1:5 5:6"/>
    </vehicle>
    <vehicle id="55" depart="55.00">
        <route edges="2:0 0:1 1:3 3:7"/>
    </vehicle>
    <vehicle id="56" depart="56.00">
        <route edges="1:3 3:7"/>
    </vehicle>
    <vehicle id="58" depart="58.00">
        <route edges="2:0 0:1 1:3"/>
    </vehicle>
    <vehicle id="64" depart="64.00">
        <route edges="2:0 0:1 1:5 5:6"/>
    </vehicle>
    <vehicle id="66" depart="66.00">
        <route edges="6:5 5:1 1:3 3:7"/>
    </vehicle>
    <vehicle id="67" depart="67.00">
        <route edges="0:1 1:3 3:7"/>
    </vehicle>
    <vehicle id="72" depart="72.00">
        <route edges="7:3 3:1"/>
    </vehicle>
    <vehicle id="74" depart="74.00">
        <route edges="3:1 1:0 0:2"/>
    </vehicle>
    <vehicle id="76" depart="76.00">
        <route edges="6:5 5:1 1:0"/>
    </vehicle>
    <vehicle id="77" depart="77.00">
        <route edges="3:1 1:0 0:2"/>
    </vehicle>
    <vehicle id="78" depart="78.00">
        <route edges="2:0 0:1 1:3 3:7"/>
    </vehicle>
    <vehicle id="80" depart="80.00">
        <route edges="3:1 1:0 0:2"/>
    </vehicle>
    <vehicle id="82" depart="82.00">
        <route edges="0:1 1:3 3:7"/>
    </vehicle>
    <vehicle id="86" depart="86.00">
        <route edges="5:1 1:3"/>
    </vehicle>
    <vehicle id="90" depart="90.00">
        <route edges="3:1 1:0 0:2"/>
    </vehicle>
    <vehicle id="91" depart="91.00">
        <route edges="7:3 3:1 1:0"/>
    </vehicle>
    <vehicle id="92" depart="92.00">
        <route edges="3:1 1:0"/>
    </vehicle>
    <vehicle id="94" depart="94.00">
        <route edges="7:3 3:1 1:5 5:6"/>
    </vehicle>
    <vehicle id="95" depart="95.00">
        <route edges="0:1 1:3 3:7"/>
    </vehicle>
    <vehicle id="96" depart="96.00">
        <route edges="1:0 0:2"/>
    </vehicle>
    <vehicle id="97" depart="97.00">
        <route edges="2:0 0:1"/>
    </vehicle>
    <vehicle id="98" depart="98.00">
        <route edges="0:1 1:3"/>
    </vehicle>
    <vehicle id="101" depart="101.00">
        <route edges="2:0 0:1"/>
    </vehicle>
    <vehicle id="102" depart="102.00">
        <route edges="0:1 1:3"/>
    </vehicle>
    <vehicle id="105" depart="105.00">
        <route edges="6:5 5:1 1:3 3:7"/>
    </vehicle>
    <vehicle id="106" depart="106.00">
        <route edges="2:0 0:1"/>
    </vehicle>
    <vehicle id="111" depart="111.00">
        <route edges="0:1"/>
    </vehicle>
    <vehicle id="112" depart="112.00">
        <route edges="6:5 5:1 1:3 3:7"/>
    </vehicle>
    <vehicle id="113" depart="113.00">
        <route edges="2:0 0:1"/>
    </vehicle>
    <vehicle id="114" depart="114.00">
        <route edges="7:3 3:1 1:5"/>
    </vehicle>
    <vehicle id="115" depart="115.00">
        <route edges="7:3 3:1 1:5 5:6"/>
    </vehicle>
    <vehicle id="117" depart="117.00">
        <route edges="2:0 0:1 1:3 3:7"/>
    </vehicle>
    <vehicle id="118" depart="118.00">
        <route edges="1:3 3:7"/>
    </vehicle>
    <vehicle id="121" depart="121.00">
        <route edges="1:3 3:7"/>
    </vehicle>
    <vehicle id="122" depart="122.00">
        <route edges="2:0 0:1"/>
    </vehicle>
    <vehicle id="123" depart="123.00">
        <route edges="1:3 3:7"/>
    </vehicle>
    <vehicle id="130" depart="130.00">
        <route edges="5:1 1:3"/>
    </vehicle>
    <vehicle id="131" depart="131.00">
        <route edges="2:0 0:1 1:3"/>
    </vehicle>
    <vehicle id="132" depart="132.00">
        <route edges="0:1"/>
    </vehicle>
    <vehicle id="133" depart="133.00">
        <route edges="3:1 1:0 0:2"/>
    </vehicle>
    <vehicle id="134" depart="134.00">
        <route edges="1:3 3:7"/>
    </vehicle>
    <vehicle id="137" depart="137.00">
        <route edges="2:0 0:1 1:5 5:6"/>
    </vehicle>
    <vehicle id="138" depart="138.00">
        <route edges="7:3 3:1 1:0"/>
    </vehicle>
    <vehicle id="140" depart="140.00">
        <route edges="2:0 0:1"/>
    </vehicle>
    <vehicle id="141" depart="141.00">
        <route edges="2:0 0:1 1:3 3:7"/>
    </vehicle>
    <vehicle id="142" depart="142.00">
        <route edges="6:5 5:1 1:3 3:7"/>
    </vehicle>
    <vehicle id="143" depart="143.00">
        <route edges="7:3 3:1 1:5 5:6"/>
    </vehicle>
    <vehicle id="146" depart="146.00">
        <route edges="0:1 1:5"/>
    </vehicle>
    <vehicle id="147" depart="147.00">
        <route edges="2:0 0:1 1:3 3:7"/>
    </vehicle>
    <vehicle id="149" depart="149.00">
        <route edges="1:3 3:7"/>
    </vehicle>
    <vehicle id="150" depart="150.00">
        <route edges="3:1 1:0"/>
    </vehicle>
    <vehicle id="151" depart="151.00">
        <route edges="6:5 5:1"/>
    </vehicle>
    <vehicle id="152" depart="152.00">
        <route edges="1:0"/>
    </vehicle>
    <vehicle id="154" depart="154.00">
        <route edges="3:1 1:0 0:2"/>
    </vehicle>
    <vehicle id="156" depart="156.00">
        <route edges="6:5 5:1 1:3 3:7"/>
    </vehicle>
    <vehicle id="157" depart="157.00">
        <route edges="3:1 1:5"/>
    </vehicle>
    <vehicle id="158" depart="158.00">
        <route edges="0:1 1:3 3:7"/>
    </vehicle>
    <vehicle id="164" depart="164.00">
        <route edges="7:3 3:1"/>
    </vehicle>
    <vehicle id="165" depart="165.00">
        <route edges="2:0 0:1"/>
    </vehicle>
    <vehicle id="167" depart="167.00">
        <route edges="5:1 1:0 0:2"/>
    </vehicle>
    <vehicle id="170" depart="170.00">
        <route edges="2:0 0:1 1:5 5:6"/>
    </vehicle>
    <vehicle id="171" depart="171.00">
        <route edges="2:0 0:1 1:3"/>
    </vehicle>
    <vehicle id="174" depart="174.00">
        <route edges="7:3 3:1 1:0"/>
    </vehicle>
    <vehicle id="175" depart="175.00">
        <route edges="2:0 0:1 1:5"/>
    </vehicle>
    <vehicle id="177" depart="177.00">
        <route edges="2:0 0:1 1:3"/>
    </vehicle>
    <vehicle id="179" depart="179.00">
        <route edges="5:1 1:0 0:2"/>
    </vehicle>
    <vehicle id="180" depart="180.00">
        <route edges="1:3 3:7"/>
    </vehicle>
    <vehicle id="181" depart="181.00">
        <route edges="7:3 3:1 1:5 5:6"/>
    </vehicle>
    <vehicle id="182" depart="182.00">
        <route edges="7:3 3:1 1:0 0:2"/>
    </vehicle>
    <vehicle id="186" depart="186.00">
        <route edges="0:1 1:3 3:7"/>
    </vehicle>
    <vehicle id="189" depart="189.00">
        <route edges="7:3 3:1 1:0 0:2"/>
    </vehicle>
    <vehicle id="191" depart="191.00">
        <route edges="6:5 5:1 1:0"/>
    </vehicle>
    <vehicle id="192" depart="192.00">
        <route edges="1:3 3:7"/>
    </vehicle>
    <vehicle id="195" depart="195.00">
        <route edges="2:0 0:1 1:3 3:7"/>
    </vehicle>
    <vehicle id="196" depart="196.00">
        <route edges="2:0 0:1 1:5"/>
    </vehicle>
    <vehicle id="197" depart="197.00">
        <route edges="5:1 1:0"/>
    </vehicle>
    <vehicle id="202" depart="202.00">
        <route edges="7:3 3:1 1:0 0:2"/>
    </vehicle>
    <vehicle id="204" depart="204.00">
        <route edges="3:1 1:0 0:2"/>
    </vehicle>
    <vehicle id="205" depart="205.00">
        <route edges="5:1"/>
    </vehicle>
    <vehicle id="208" depart="208.00">
        <route edges="7:3 3:1 1:0 0:2"/>
    </vehicle>
    <vehicle id="212" depart="212.00">
        <route edges="6:5 5:1"/>
    </vehicle>
    <vehicle id="213" depart="213.00">
        <route edges="3:1"/>
    </vehicle>
    <vehicle id="214" depart="214.00">
        <route edges="3:1 1:0"/>
    </vehicle>
    <vehicle id="216" depart="216.00">
        <route edges="3:1 1:5 5:6"/>
    </vehicle>
    <vehicle id="217" depart="217.00">
        <route edges="1:0 0:2"/>
    </vehicle>
    <vehicle id="218" depart="218.00">
        <route edges="2:0 0:1 1:3 3:7"/>
    </vehicle>
    <vehicle id="219" depart="219.00">
        <route edges="6:5 5:1 1:0 0:2"/>
    </vehicle>
    <vehicle id="221" depart="221.00">
        <route edges="3:1 1:5 5:6"/>
    </vehicle>
    <vehicle id="222" depart="222.00">
        <route edges="6:5 5:1 1:0"/>
    </vehicle>
    <vehicle id="224" depart="224.00">
        <route edges="5:1"/>
    </vehicle>
    <vehicle id="225" depart="225.00">
        <route edges="2:0 0:1 1:3 3:7"/>
    </vehicle>
    <vehicle id="229" depart="229.00">
        <route edges="0:1 1:5 5:6"/>
    </vehicle>
    <vehicle id="231" depart="231.00">
        <route edges="0:1 1:3 3:7"/>
    </vehicle>
    <vehicle id="232" depart="232.00">
        <route edges="7:3 3:1"/>
    </vehicle>
    <vehicle id="233" depart="233.00">
        <route edges="7:3 3:1 1:0 0:2"/>
    </vehicle>
    <vehicle id="234" depart="234.00">
        <route edges="7:3 3:1 1:0"/>
    </vehicle>
    <vehicle id="241" depart="241.00">
        <route edges="0:1 1:3 3:7"/>
    </vehicle>
    <vehicle id="245" depart="245.00">
        <route edges="0:1 1:5 5:6"/>
    </vehicle>
    <vehicle id="247" depart="247.00">
        <route edges="7:3 3:1 1:0 0:2"/>
    </vehicle>
    <vehicle id="249" depart="249.00">
        <route edges="7:3 3:1 1:0"/>
    </vehicle>
    <vehicle id="250" depart="250.00">
        <route edges="1:0 0:2"/>
    </vehicle>
    <vehicle id="252" depart="252.00">
        <route edges="1:3 3:7"/>
    </vehicle>
    <vehicle id="256" depart="256.00">
        <route edges="2:0 0:1 1:3 3:7"/>
    </vehicle>
    <vehicle id="262" depart="262.00">
        <route edges="6:5 5:1 1:3"/>
    </vehicle>
    <vehicle id="263" depart="263.00">
        <route edges="6:5 5:1 1:0"/>
    </vehicle>
    <vehicle id="264" depart="264.00">
        <route edges="7:3 3:1 1:0 0:2"/>
    </vehicle>
    <vehicle id="266" depart="266.00">
        <route edges="3:1 1:5 5:6"/>
    </vehicle>
    <vehicle id="270" depart="270.00">
        <route edges="2:0 0:1 1:5 5:6"/>
    </vehicle>
    <vehicle id="272" depart="272.00">
        <route edges="7:3 3:1 1:5 5:6"/>
    </vehicle>
    <vehicle id="273" depart="273.00">
        <route edges="3:1 1:0"/>
    </vehicle>
    <vehicle id="274" depart="274.00">
        <route edges="3:1"/>
    </vehicle>
    <vehicle id="275" depart="275.00">
        <route edges="3:1 1:5 5:6"/>
    </vehicle>
    <vehicle id="280" depart="280.00">
        <route edges="3:1 1:0 0:2"/>
    </vehicle>
    <vehicle id="281" depart="281.00">
        <route edges="0:1"/>
    </vehicle>
    <vehicle id="285" depart="285.00">
        <route edges="1:3 3:7"/>
    </vehicle>
    <vehicle id="287" depart="287.00">
        <route edges="7:3 3:1 1:0 0:2"/>
    </vehicle>
    <vehicle id="299" depart="299.00">
        <route edges="2:0 0:1 1:3 3:7"/>
    </vehicle>
    <vehicle id="303" depart="303.00">
        <route edges="6:5 5:1 1:3"/>
    </vehicle>
    <vehicle id="305" depart="305.00">
        <route edges="5:1 1:0 0:2"/>
    </vehicle>
    <vehicle id="310" depart="310.00">
        <route edges="0:1 1:5 5:6"/>
    </vehicle>
    <vehicle id="311" depart="311.00">
        <route edges="0:1 1:3 3:7"/>
    </vehicle>
    <vehicle id="312" depart="312.00">
        <route edges="2:0 0:1 1:5 5:6"/>
    </vehicle>
    <vehicle id="315" depart="315.00">
        <route edges="3:1 1:5"/>
    </vehicle>
    <vehicle id="316" depart="316.00">
        <route edges="0:1 1:5"/>
    </vehicle>
    <vehicle id="318" depart="318.00">
        <route edges="0:1 1:3 3:7"/>
    </vehicle>
    <vehicle id="319" depart="319.00">
        <route edges="1:0 0:2"/>
    </vehicle>
    <vehicle id="321" depart="321.00">
        <route edges="2:0 0:1 1:3"/>
    </vehicle>
    <vehicle id="322" depart="322.00">
        <route edges="6:5 5:1 1:0 0:2"/>
    </vehicle>
    <vehicle id="323" depart="323.00">
        <route edges="0:1 1:3 3:7"/>
    </vehicle>
    <vehicle id="324" depart="324.00">
        <route edges="7:3 3:1"/>
    </vehicle>
    <vehicle id="325" depart="325.00">
        <route edges="1:5 5:6"/>
    </vehicle>
    <vehicle id="326" depart="326.00">
        <route edges="6:5 5:1 1:3"/>
    </vehicle>
    <vehicle id="328" depart="328.00">
        <route edges="2:0 0:1"/>
    </vehicle>
    <vehicle id="329" depart="329.00">
        <route edges="2:0 0:1 1:3 3:7"/>
    </vehicle>
    <vehicle id="332" depart="332.00">
        <route edges="2:0 0:1 1:3 3:7"/>
    </vehicle>
    <vehicle id="334" depart="334.00">
        <route edges="3:1 1:0 0:2"/>
    </vehicle>
    <vehicle id="336" depart="336.00">
        <route edges="2:0 0:1 1:3 3:7"/>
    </vehicle>
    <vehicle id="339" depart="339.00">
        <route edges="0:1 1:5 5:6"/>
    </vehicle>
    <vehicle id="340" depart="340.00">
        <route edges="6:5 5:1"/>
    </vehicle>
    <vehicle id="343" depart="343.00">
        <route edges="3:1 1:0 0:2"/>
    </vehicle>
    <vehicle id="347" depart="347.00">
        <route edges="7:3 3:1"/>
    </vehicle>
    <vehicle id="349" depart="349.00">
        <route edges="3:1 1:5 5:6"/>
    </vehicle>
    <vehicle id="352" depart="352.00">
        <route edges="0:1 1:3 3:7"/>
    </vehicle>
    <vehicle id="354" depart="354.00">
        <route edges="7:3 3:1 1:5 5:6"/>
    </vehicle>
    <vehicle id="355" depart="355.00">
        <route edges="3:1"/>
    </vehicle>
    <vehicle id="356" depart="356.00">
        <route edges="7:3 3:1 1:0"/>
    </vehicle>
    <vehicle id="362" depart="362.00">
        <route edges="6:5 5:1 1:0 0:2"/>
    </vehicle>
    <vehicle id="363" depart="363.00">
        <route edges="2:0 0:1 1:5"/>
    </vehicle>
    <vehicle id="364" depart="364.00">
        <route edges="2:0 0:1 1:3 3:7"/>
    </vehicle>
    <vehicle id="367" depart="367.00">
        <route edges="2:0 0:1 1:5 5:6"/>
    </vehicle>
    <vehicle id="370" depart="370.00">
        <route edges="6:5 5:1 1:3 3:7"/>
    </vehicle>
    <vehicle id="371" depart="371.00">
        <route edges="0:1 1:3"/>
    </vehicle>
    <vehicle id="374" depart="374.00">
        <route edges="7:3 3:1 1:0 0:2"/>
    </vehicle>
    <vehicle id="377" depart="377.00">
        <route edges="2:0 0:1 1:3 3:7"/>
    </vehicle>
    <vehicle id="378" depart="378.00">
        <route edges="1:3 3:7"/>
    </vehicle>
    <vehicle id="379" depart="379.00">
        <route edges="0:1 1:5 5:6"/>
    </vehicle>
    <vehicle id="381" depart="381.00">
        <route edges="7:3 3:1 1:5"/>
    </vehicle>
    <vehicle id="385" depart="385.00">
        <route edges="2:0 0:1 1:5 5:6"/>
    </vehicle>
    <vehicle id="386" depart="386.00">
        <route edges="2:0 0:1 1:3 3:7"/>
    </vehicle>
    <vehicle id="387" depart="387.00">
        <route edges="2:0 0:1"/>
    </vehicle>
    <vehicle id="388" depart="388.00">
        <route edges="7:3 3:1 1:5 5:6"/>
    </vehicle>
    <vehicle id="389" depart="389.00">
        <route edges="7:3 3:1 1:0"/>
    </vehicle>
    <vehicle id="390" depart="390.00">
        <route edges="1:3"/>
    </vehicle>
    <vehicle id="391" depart="391.00">
        <route edges="1:3"/>
    </vehicle>
    <vehicle id="393" depart="393.00">
        <route edges="1:0 0:2"/>
    </vehicle>
    <vehicle id="397" depart="397.00">
        <route edges="2:0 0:1 1:5"/>
    </vehicle>
    <vehicle id="398" depart="398.00">
        <route edges="0:1 1:3 3:7"/>
    </vehicle>
    <vehicle id="400" depart="400.00">
        <route edges="2:0 0:1 1:3"/>
    </vehicle>
    <vehicle id="401" depart="401.00">
        <route edges="2:0 0:1 1:3 3:7"/>
    </vehicle>
    <vehicle id="402" depart="402.00">
        <route edges="2:0 0:1 1:3"/>
    </vehicle>
    <vehicle id="404" depart="404.00">
        <route edges="1:0 0:2"/>
    </vehicle>
    <vehicle id="405" depart="405.00">
        <route edges="1:3 3:7"/>
    </vehicle>
    <vehicle id="406" depart="406.00">
        <route edges="6:5 5:1 1:3"/>
    </vehicle>
    <vehicle id="408" depart="408.00">
        <route edges="7:3 3:1 1:0"/>
    </vehicle>
    <vehicle id="410" depart="410.00">
        <route edges="1:0"/>
    </vehicle>
    <vehicle id="412" depart="412.00">
        <route edges="3:1 1:0 0:2"/>
    </vehicle>
    <vehicle id="414" depart="414.00">
        <route edges="1:5 5:6"/>
    </vehicle>
    <vehicle id="415" depart="415.00">
        <route edges="2:0 0:1 1:3"/>
    </vehicle>
    <vehicle id="416" depart="416.00">
        <route edges="6:5 5:1 1:0"/>
    </vehicle>
    <vehicle id="418" depart="418.00">
        <route edges="7:3 3:1 1:0 0:2"/>
    </vehicle>
    <vehicle id="421" depart="421.00">
        <route edges="2:0 0:1 1:5"/>
    </vehicle>
    <vehicle id="424" depart="424.00">
        <route edges="0:1 1:5 5:6"/>
    </vehicle>
    <vehicle id="425" depart="425.00">
        <route edges="3:1 1:0 0:2"/>
    </vehicle>
    <vehicle id="427" depart="427.00">
        <route edges="6:5 5:1 1:3 3:7"/>
    </vehicle>
    <vehicle id="428" depart="428.00">
        <route edges="7:3 3:1 1:5"/>
    </vehicle>
    <vehicle id="429" depart="429.00">
        <route edges="3:1 1:0"/>
    </vehicle>
    <vehicle id="430" depart="430.00">
        <route edges="0:1"/>
    </vehicle>
    <vehicle id="431" depart="431.00">
        <route edges="3:1 1:0"/>
    </vehicle>
    <vehicle id="432" depart="432.00">
        <route edges="2:0 0:1 1:3 3:7"/>
    </vehicle>
    <vehicle id="434" depart="434.00">
        <route edges="0:1 1:5 5:6"/>
    </vehicle>
    <vehicle id="435" depart="435.00">
        <route edges="2:0 0:1 1:5 5:6"/>
    </vehicle>
    <vehicle id="442" depart="442.00">
        <route edges="2:0 0:1 1:3"/>
    </vehicle>
    <vehicle id="443" depart="443.00">
        <route edges="2:0 0:1 1:3 3:7"/>
    </vehicle>
    <vehicle id="444" depart="444.00">
        <route edges="3:1 1:0"/>
    </vehicle>
    <vehicle id="450" depart="450.00">
        <route edges="3:1 1:0"/>
    </vehicle>
    <vehicle id="453" depart="453.00">
        <route edges="0:1 1:3 3:7"/>
    </vehicle>
    <vehicle id="454" depart="454.00">
        <route edges="2:0 0:1 1:3"/>
    </vehicle>
    <vehicle id="456" depart="456.00">
        <route edges="7:3 3:1"/>
    </vehicle>
    <vehicle id="457" depart="457.00">
        <route edges="2:0 0:1 1:5 5:6"/>
    </vehicle>
    <vehicle id="458" depart="458.00">
        <route edges="1:0"/>
    </vehicle>
    <vehicle id="459" depart="459.00">
        <route edges="6:5 5:1 1:0 0:2"/>
    </vehicle>
    <vehicle id="463" depart="463.00">
        <route edges="7:3 3:1 1:0 0:2"/>
    </vehicle>
    <vehicle id="464" depart="464.00">
        <route edges="6:5 5:1 1:0 0:2"/>
    </vehicle>
    <vehicle id="466" depart="466.00">
        <route edges="0:1 1:3 3:7"/>
    </vehicle>
    <vehicle id="468" depart="468.00">
        <route edges="2:0 0:1 1:3"/>
    </vehicle>
    <vehicle id="469" depart="469.00">
        <route edges="1:3"/>
    </vehicle>
    <vehicle id="472" depart="472.00">
        <route edges="5:1 1:3 3:7"/>
    </vehicle>
    <vehicle id="473" depart="473.00">
        <route edges="1:0 0:2"/>
    </vehicle>
    <vehicle id="476" depart="476.00">
        <route edges="1:0 0:2"/>
    </vehicle>
    <vehicle id="480" depart="480.00">
        <route edges="1:0 0:2"/>
    </vehicle>
    <vehicle id="481" depart="481.00">
        <route edges="0:1 1:5"/>
    </vehicle>
    <vehicle id="485" depart="485.00">
        <route edges="7:3 3:1 1:0"/>
    </vehicle>
    <vehicle id="487" depart="487.00">
        <route edges="0:1"/>
    </vehicle>
    <vehicle id="488" depart="488.00">
        <route edges="3:1 1:0 0:2"/>
    </vehicle>
    <vehicle id="489" depart="489.00">
        <route edges="1:0 0:2"/>
    </vehicle>
    <vehicle id="490" depart="490.00">
        <route edges="6:5 5:1 1:0 0:2"/>
    </vehicle>
    <vehicle id="493" depart="493.00">
        <route edges="2:0 0:1 1:5 5:6"/>
    </vehicle>
    <vehicle id="495" depart="495.00">
        <route edges="7:3 3:1"/>
    </vehicle>
    <vehicle id="497" depart="497.00">
        <route edges="2:0 0:1"/>
    </vehicle>
    <vehicle id="498" depart="498.00">
        <route edges="2:0 0:1 1:5"/>
    </vehicle>
    <vehicle id="499" depart="499.00">
        <route edges="7:3 3:1 1:0 0:2"/>
    </vehicle>
    <vehicle id="500" depart="500.00">
        <route edges="7:3 3:1"/>
    </vehicle>
    <vehicle id="502" depart="502.00">
        <route edges="2:0 0:1 1:5 5:6"/>
    </vehicle>
    <vehicle id="504" depart="504.00">
        <route edges="7:3 3:1 1:5"/>
    </vehicle>
    <vehicle id="506" depart="506.00">
        <route edges="7:3 3:1 1:0 0:2"/>
    </vehicle>
    <vehicle id="512" depart="512.00">
        <route edges="7:3 3:1 1:5"/>
    </vehicle>
    <vehicle id="514" depart="514.00">
        <route edges="6:5 5:1"/>
    </vehicle>
    <vehicle id="516" depart="516.00">
        <route edges="6:5 5:1 1:3 3:7"/>
    </vehicle>
    <vehicle id="517" depart="517.00">
        <route edges="0:1 1:5 5:6"/>
    </vehicle>
    <vehicle id="518" depart="518.00">
        <route edges="6:5 5:1 1:3"/>
    </vehicle>
    <vehicle id="520" depart="520.00">
        <route edges="1:3 3:7"/>
    </vehicle>
    <vehicle id="522" depart="522.00">
        <route edges="0:1"/>
    </vehicle>
    <vehicle id="523" depart="523.00">
        <route edges="6:5 5:1 1:0 0:2"/>
    </vehicle>
    <vehicle id="528" depart="528.00">
        <route edges="1:0 0:2"/>
    </vehicle>
    <vehicle id="531" depart="531.00">
        <route edges="1:0 0:2"/>
    </vehicle>
    <vehicle id="532" depart="532.00">
        <route edges="5:1 1:0 0:2"/>
    </vehicle>
    <vehicle id="533" depart="533.00">
        <route edges="2:0 0:1 1:3"/>
    </vehicle>
    <vehicle id="536" depart="536.00">
        <route edges="6:5 5:1 1:3 3:7"/>
    </vehicle>
    <vehicle id="538" depart="538.00">
        <route edges="1:0 0:2"/>
    </vehicle>
    <vehicle id="540" depart="540.00">
        <route edges="1:3 3:7"/>
    </vehicle>
    <vehicle id="542" depart="542.00">
        <route edges="1:3 3:7"/>
    </vehicle>
    <vehicle id="544" depart="544.00">
        <route edges="7:3 3:1 1:0 0:2"/>
    </vehicle>
    <vehicle id="553" depart="553.00">
        <route edges="0:1 1:3 3:7"/>
    </vehicle>
    <vehicle id="554" depart="554.00">
        <route edges="1:5 5:6"/>
    </vehicle>
    <vehicle id="555" depart="555.00">
        <route edges="2:0 0:1"/>
    </vehicle>
    <vehicle id="556" depart="556.00">
        <route edges="7:3 3:1 1:0"/>
    </vehicle>
    <vehicle id="557" depart="557.00">
        <route edges="3:1 1:0 0:2"/>
    </vehicle>
    <vehicle id="558" depart="558.00">
        <route edges="7:3 3:1 1:0"/>
    </vehicle>
    <vehicle id="560" depart="560.00">
        <route edges="7:3 3:1 1:0 0:2"/>
    </vehicle>
    <vehicle id="561" depart="561.00">
        <route edges="0:1 1:5 5:6"/>
    </vehicle>
    <vehicle id="562" depart="562.00">
        <route edges="2:0 0:1 1:3 3:7"/>
    </vehicle>
    <vehicle id="563" depart="563.00">
        <route edges="2:0 0:1 1:3 3:7"/>
    </vehicle>
    <vehicle id="564" depart="564.00">
        <route edges="0:1 1:3"/>
    </vehicle>
    <vehicle id="565" depart="565.00">
        <route edges="6:5 5:1 1:3 3:7"/>
    </vehicle>
    <vehicle id="566" depart="566.00">
        <route edges="7:3 3:1 1:5"/>
    </vehicle>
    <vehicle id="567" depart="567.00">
        <route edges="2:0 0:1"/>
    </vehicle>
    <vehicle id="568" depart="568.00">
        <route edges="7:3 3:1 1:5"/>
    </vehicle>
    <vehicle id="570" depart="570.00">
        <route edges="0:1 1:3"/>
    </vehicle>
    <vehicle id="571" depart="571.00">
        <route edges="2:0 0:1 1:5 5:6"/>
    </vehicle>
    <vehicle id="572" depart="572.00">
        <route edges="5:1 1:0 0:2"/>
    </vehicle>
    <vehicle id="573" depart="573.00">
        <route edges="2:0 0:1 1:5"/>
    </vehicle>
    <vehicle id="574" depart="574.00">
        <route edges="2:0 0:1 1:3 3:7"/>
    </vehicle>
    <vehicle id="577" depart="577.00">
        <route edges="5:1 1:0 0:2"/>
    </vehicle>
    <vehicle id="578" depart="578.00">
        <route edges="7:3 3:1 1:0 0:2"/>
    </vehicle>
    <vehicle id="580" depart="580.00">
        <route edges="7:3 3:1 1:0 0:2"/>
    </vehicle>
    <vehicle id="584" depart="584.00">
        <route edges="5:1 1:3"/>
    </vehicle>
    <vehicle id="586" depart="586.00">
        <route edges="1:5"/>
    </vehicle>
    <vehicle id="587" depart="587.00">
        <route edges="7:3 3:1"/>
    </vehicle>
    <vehicle id="590" depart="590.00">
        <route edges="3:1 1:0 0:2"/>
    </vehicle>
    <vehicle id="593" depart="593.00">
        <route edges="2:0 0:1 1:3 3:7"/>
    </vehicle>
    <vehicle id="595" depart="595.00">
        <route edges="1:0 0:2"/>
    </vehicle>
    <vehicle id="596" depart="596.00">
        <route edges="1:3 3:7"/>
    </vehicle>
    <vehicle id="598" depart="598.00">
        <route edges="7:3 3:1"/>
    </vehicle>
    <vehicle id="599" depart="599.00">
        <route edges="0:1 1:3 3:7"/>
    </vehicle>
    <vehicle id="600" depart="600.00">
        <route edges="3:1 1:0 0:2"/>
    </vehicle>
    <vehicle id="601" depart="601.00">
        <route edges="6:5 5:1 1:0 0:2"/>
    </vehicle>
    <vehicle id="602" depart="602.00">
        <route edges="1:0 0:2"/>
    </vehicle>
    <vehicle id="603" depart="603.00">
        <route edges="7:3 3:1 1:0"/>
    </vehicle>
    <vehicle id="606" depart="606.00">
        <route edges="2:0 0:1 1:3"/>
    </vehicle>
    <vehicle id="611" depart="611.00">
        <route edges="1:3 3:7"/>
    </vehicle>
    <vehicle id="612" depart="612.00">
        <route edges="2:0 0:1"/>
    </vehicle>
    <vehicle id="613" depart="613.00">
        <route edges="0:1 1:3"/>
    </vehicle>
    <vehicle id="615" depart="615.00">
        <route edges="6:5 5:1 1:0 0:2"/>
    </vehicle>
    <vehicle id="616" depart="616.00">
        <route edges="7:3 3:1 1:0 0:2"/>
    </vehicle>
    <vehicle id="618" depart="618.00">
        <route edges="6:5 5:1 1:3 3:7"/>
    </vehicle>
    <vehicle id="620" depart="620.00">
        <route edges="2:0 0:1 1:3 3:7"/>
    </vehicle>
    <vehicle id="621" depart="621.00">
        <route edges="6:5 5:1 1:3 3:7"/>
    </vehicle>
    <vehicle id="622" depart="622.00">
        <route edges="7:3 3:1 1:0 0:2"/>
    </vehicle>
    <vehicle id="627" depart="627.00">
        <route edges="5:1 1:3 3:7"/>