<?xml version="1.0" encoding="UTF-8"?>

<!-- generated on Thu Feb 13 12:39:23 2014 by SUMO duarouter Version 0.18.0
<?xml version="1.0" encoding="UTF-8"?>

<configuration xmlns:xsi="http://www.w3.org/2001/XMLSchema-instance" xsi:noNamespaceSchemaLocation="http://sumo.sf.net/xsd/duarouterConfiguration.xsd">

    <input>
        <net-file value="simpleT.net.xml"/>
        <trip-files value="experimentos/simpleT.p0.4.10.trips.xml"/>
    </input>

    <output>
        <output-file value="experimentos/simpleT.p0.4.10.rou.xml"/>
    </output>

    <processing>
        <ignore-errors value="true"/>
    </processing>

    <random_number>
        <random value="true"/>
    </random_number>

</configuration>
-->

<routes xmlns:xsi="http://www.w3.org/2001/XMLSchema-instance" xsi:noNamespaceSchemaLocation="http://sumo.sf.net/xsd/routes_file.xsd">
    <vehicle id="0" depart="0.00">
        <route edges="3:1 1:0 0:2"/>
    </vehicle>
    <vehicle id="3" depart="1.20">
        <route edges="1:3"/>
    </vehicle>
    <vehicle id="5" depart="2.00">
        <route edges="1:0 0:2"/>
    </vehicle>
    <vehicle id="6" depart="2.40">
        <route edges="0:1 1:5 5:6"/>
    </vehicle>
    <vehicle id="9" depart="3.60">
        <route edges="0:1 1:5"/>
    </vehicle>
    <vehicle id="12" depart="4.80">
        <route edges="1:0"/>
    </vehicle>
    <vehicle id="13" depart="5.20">
        <route edges="5:1 1:3 3:7"/>
    </vehicle>
    <vehicle id="14" depart="5.60">
        <route edges="7:3 3:1 1:0 0:2"/>
    </vehicle>
    <vehicle id="17" depart="6.80">
        <route edges="2:0 0:1 1:5 5:6"/>
    </vehicle>
    <vehicle id="18" depart="7.20">
        <route edges="6:5 5:1"/>
    </vehicle>
    <vehicle id="20" depart="8.00">
        <route edges="1:3 3:7"/>
    </vehicle>
    <vehicle id="22" depart="8.80">
        <route edges="3:1 1:0 0:2"/>
    </vehicle>
    <vehicle id="24" depart="9.60">
        <route edges="3:1 1:0"/>
    </vehicle>
    <vehicle id="25" depart="10.00">
        <route edges="6:5 5:1 1:0 0:2"/>
    </vehicle>
    <vehicle id="27" depart="10.80">
        <route edges="7:3 3:1 1:5"/>
    </vehicle>
    <vehicle id="28" depart="11.20">
        <route edges="1:0 0:2"/>
    </vehicle>
    <vehicle id="32" depart="12.80">
        <route edges="5:1 1:3 3:7"/>
    </vehicle>
    <vehicle id="33" depart="13.20">
        <route edges="1:3"/>
    </vehicle>
    <vehicle id="35" depart="14.00">
        <route edges="7:3 3:1 1:5 5:6"/>
    </vehicle>
    <vehicle id="36" depart="14.40">
        <route edges="2:0 0:1 1:5"/>
    </vehicle>
    <vehicle id="37" depart="14.80">
        <route edges="7:3 3:1 1:5 5:6"/>
    </vehicle>
    <vehicle id="38" depart="15.20">
        <route edges="7:3 3:1 1:0 0:2"/>
    </vehicle>
    <vehicle id="39" depart="15.60">
        <route edges="7:3 3:1 1:0 0:2"/>
    </vehicle>
    <vehicle id="40" depart="16.00">
        <route edges="5:1 1:3"/>
    </vehicle>
    <vehicle id="41" depart="16.40">
        <route edges="6:5 5:1 1:0"/>
    </vehicle>
    <vehicle id="45" depart="18.00">
        <route edges="3:1 1:0"/>
    </vehicle>
    <vehicle id="46" depart="18.40">
        <route edges="7:3 3:1 1:0 0:2"/>
    </vehicle>
    <vehicle id="49" depart="19.60">
        <route edges="6:5 5:1 1:0"/>
    </vehicle>
    <vehicle id="50" depart="20.00">
        <route edges="7:3 3:1 1:0 0:2"/>
    </vehicle>
    <vehicle id="52" depart="20.80">
        <route edges="5:1 1:3"/>
    </vehicle>
    <vehicle id="56" depart="22.40">
        <route edges="6:5 5:1 1:3"/>
    </vehicle>
    <vehicle id="57" depart="22.80">
        <route edges="5:1 1:3"/>
    </vehicle>
    <vehicle id="60" depart="24.00">
        <route edges="3:1 1:0 0:2"/>
    </vehicle>
    <vehicle id="62" depart="24.80">
        <route edges="3:1 1:5 5:6"/>
    </vehicle>
    <vehicle id="63" depart="25.20">
        <route edges="7:3 3:1 1:0"/>
    </vehicle>
    <vehicle id="64" depart="25.60">
        <route edges="2:0 0:1 1:3"/>
    </vehicle>
    <vehicle id="65" depart="26.00">
        <route edges="2:0 0:1 1:5 5:6"/>
    </vehicle>
    <vehicle id="66" depart="26.40">
        <route edges="7:3 3:1 1:0 0:2"/>
    </vehicle>
    <vehicle id="67" depart="26.80">
        <route edges="3:1 1:0 0:2"/>
    </vehicle>
    <vehicle id="68" depart="27.20">
        <route edges="1:3 3:7"/>
    </vehicle>
    <vehicle id="69" depart="27.60">
        <route edges="6:5 5:1 1:0 0:2"/>
    </vehicle>
    <vehicle id="71" depart="28.40">
        <route edges="2:0 0:1 1:3"/>
    </vehicle>
    <vehicle id="72" depart="28.80">
        <route edges="2:0 0:1 1:3 3:7"/>
    </vehicle>
    <vehicle id="74" depart="29.60">
        <route edges="2:0 0:1 1:5"/>
    </vehicle>
    <vehicle id="75" depart="30.00">
        <route edges="7:3 3:1 1:5"/>
    </vehicle>
    <vehicle id="79" depart="31.60">
        <route edges="0:1 1:5 5:6"/>
    </vehicle>
    <vehicle id="85" depart="34.00">
        <route edges="0:1 1:5 5:6"/>
    </vehicle>
    <vehicle id="86" depart="34.40">
        <route edges="3:1 1:5 5:6"/>
    </vehicle>
    <vehicle id="87" depart="34.80">
        <route edges="1:3"/>
    </vehicle>
    <vehicle id="88" depart="35.20">
        <route edges="0:1 1:3"/>
    </vehicle>
    <vehicle id="91" depart="36.40">
        <route edges="7:3 3:1 1:0 0:2"/>
    </vehicle>
    <vehicle id="92" depart="36.80">
        <route edges="1:3 3:7"/>
    </vehicle>
    <vehicle id="97" depart="38.80">
        <route edges="0:1 1:5"/>
    </vehicle>
    <vehicle id="98" depart="39.20">
        <route edges="0:1 1:3 3:7"/>
    </vehicle>
    <vehicle id="99" depart="39.60">
        <route edges="2:0 0:1 1:5 5:6"/>
    </vehicle>
    <vehicle id="102" depart="40.80">
        <route edges="7:3 3:1 1:0 0:2"/>
    </vehicle>
    <vehicle id="104" depart="41.60">
        <route edges="6:5 5:1 1:3 3:7"/>
    </vehicle>
    <vehicle id="108" depart="43.20">
        <route edges="7:3 3:1"/>
    </vehicle>
    <vehicle id="109" depart="43.60">
        <route edges="7:3 3:1 1:0 0:2"/>
    </vehicle>
    <vehicle id="110" depart="44.00">
        <route edges="7:3 3:1"/>
    </vehicle>
    <vehicle id="111" depart="44.40">
        <route edges="2:0 0:1"/>
    </vehicle>
    <vehicle id="112" depart="44.80">
        <route edges="3:1 1:5"/>
    </vehicle>
    <vehicle id="115" depart="46.00">
        <route edges="7:3 3:1"/>
    </vehicle>
    <vehicle id="116" depart="46.40">
        <route edges="7:3 3:1"/>
    </vehicle>
    <vehicle id="117" depart="46.80">
        <route edges="2:0 0:1 1:3 3:7"/>
    </vehicle>
    <vehicle id="118" depart="47.20">
        <route edges="1:3 3:7"/>
    </vehicle>
    <vehicle id="119" depart="47.60">
        <route edges="0:1"/>
    </vehicle>
    <vehicle id="120" depart="48.00">
        <route edges="5:1 1:0"/>
    </vehicle>
    <vehicle id="121" depart="48.40">
        <route edges="5:1 1:0"/>
    </vehicle>
    <vehicle id="122" depart="48.80">
        <route edges="7:3 3:1 1:0 0:2"/>
    </vehicle>
    <vehicle id="123" depart="49.20">
        <route edges="0:1 1:3 3:7"/>
    </vehicle>
    <vehicle id="124" depart="49.60">
        <route edges="0:1 1:3 3:7"/>
    </vehicle>
    <vehicle id="125" depart="50.00">
        <route edges="2:0 0:1 1:3"/>
    </vehicle>
    <vehicle id="129" depart="51.60">
        <route edges="0:1 1:3 3:7"/>
    </vehicle>
    <vehicle id="130" depart="52.00">
        <route edges="0:1 1:3 3:7"/>
    </vehicle>
    <vehicle id="131" depart="52.40">
        <route edges="7:3 3:1 1:0"/>
    </vehicle>
    <vehicle id="133" depart="53.20">
        <route edges="7:3 3:1 1:0"/>
    </vehicle>
    <vehicle id="134" depart="53.60">
        <route edges="6:5 5:1 1:3 3:7"/>
    </vehicle>
    <vehicle id="141" depart="56.40">
        <route edges="7:3 3:1 1:0 0:2"/>
    </vehicle>
    <vehicle id="142" depart="56.80">
        <route edges="0:1"/>
    </vehicle>
    <vehicle id="143" depart="57.20">
        <route edges="1:0"/>
    </vehicle>
    <vehicle id="145" depart="58.00">
        <route edges="1:0 0:2"/>
    </vehicle>
    <vehicle id="148" depart="59.20">
        <route edges="2:0 0:1 1:5"/>
    </vehicle>
    <vehicle id="150" depart="60.00">
        <route edges="1:3 3:7"/>
    </vehicle>
    <vehicle id="151" depart="60.40">
        <route edges="2:0 0:1"/>
    </vehicle>
    <vehicle id="152" depart="60.80">
        <route edges="6:5 5:1 1:3 3:7"/>
    </vehicle>
    <vehicle id="153" depart="61.20">
        <route edges="7:3 3:1 1:0"/>
    </vehicle>
    <vehicle id="155" depart="62.00">
        <route edges="2:0 0:1 1:3 3:7"/>
    </vehicle>
    <vehicle id="156" depart="62.40">
        <route edges="0:1 1:5"/>
    </vehicle>
    <vehicle id="159" depart="63.60">
        <route edges="1:3 3:7"/>
    </vehicle>
    <vehicle id="163" depart="65.20">
        <route edges="6:5 5:1 1:3"/>
    </vehicle>
    <vehicle id="167" depart="66.80">
        <route edges="1:0 0:2"/>
    </vehicle>
    <vehicle id="171" depart="68.40">
        <route edges="6:5 5:1 1:0"/>
    </vehicle>
    <vehicle id="173" depart="69.20">
        <route edges="7:3 3:1 1:5 5:6"/>
    </vehicle>
    <vehicle id="176" depart="70.40">
        <route edges="7:3 3:1 1:0 0:2"/>
    </vehicle>
    <vehicle id="178" depart="71.20">
        <route edges="3:1"/>
    </vehicle>
    <vehicle id="180" depart="72.00">
        <route edges="6:5 5:1 1:3"/>
    </vehicle>
    <vehicle id="181" depart="72.40">
        <route edges="2:0 0:1 1:3 3:7"/>
    </vehicle>
    <vehicle id="184" depart="73.60">
        <route edges="7:3 3:1 1:0 0:2"/>
    </vehicle>
    <vehicle id="185" depart="74.00">
        <route edges="7:3 3:1 1:5 5:6"/>
    </vehicle>
    <vehicle id="186" depart="74.40">
        <route edges="0:1 1:3"/>
    </vehicle>
    <vehicle id="188" depart="75.20">
        <route edges="2:0 0:1"/>
    </vehicle>
    <vehicle id="189" depart="75.60">
        <route edges="1:0 0:2"/>
    </vehicle>
    <vehicle id="191" depart="76.40">
        <route edges="6:5 5:1"/>
    </vehicle>
    <vehicle id="193" depart="77.20">
        <route edges="7:3 3:1 1:0"/>
    </vehicle>
    <vehicle id="194" depart="77.60">
        <route edges="7:3 3:1 1:0"/>
    </vehicle>
    <vehicle id="195" depart="78.00">
        <route edges="0:1 1:3 3:7"/>
    </vehicle>
    <vehicle id="197" depart="78.80">
        <route edges="1:0 0:2"/>
    </vehicle>
    <vehicle id="198" depart="79.20">
        <route edges="5:1 1:3 3:7"/>
    </vehicle>
    <vehicle id="199" depart="79.60">
        <route edges="2:0 0:1 1:3 3:7"/>
    </vehicle>
    <vehicle id="201" depart="80.40">
        <route edges="0:1 1:3"/>
    </vehicle>
    <vehicle id="203" depart="81.20">
        <route edges="5:1"/>
    </vehicle>
    <vehicle id="205" depart="82.00">
        <route edges="0:1 1:3 3:7"/>
    </vehicle>
    <vehicle id="206" depart="82.40">
        <route edges="2:0 0:1 1:3 3:7"/>
    </vehicle>
    <vehicle id="207" depart="82.80">
        <route edges="2:0 0:1"/>
    </vehicle>
    <vehicle id="208" depart="83.20">
        <route edges="7:3 3:1 1:0 0:2"/>
    </vehicle>
    <vehicle id="209" depart="83.60">
        <route edges="1:3 3:7"/>
    </vehicle>
    <vehicle id="211" depart="84.40">
        <route edges="2:0 0:1 1:3 3:7"/>
    </vehicle>
    <vehicle id="213" depart="85.20">
        <route edges="1:5"/>
    </vehicle>
    <vehicle id="214" depart="85.60">
        <route edges="7:3 3:1 1:0"/>
    </vehicle>
    <vehicle id="215" depart="86.00">
        <route edges="6:5 5:1 1:3 3:7"/>
    </vehicle>
    <vehicle id="216" depart="86.40">
        <route edges="3:1 1:5"/>
    </vehicle>
    <vehicle id="217" depart="86.80">
        <route edges="5:1 1:3 3:7"/>
    </vehicle>
    <vehicle id="220" depart="88.00">
        <route edges="3:1 1:0"/>
    </vehicle>
    <vehicle id="222" depart="88.80">
        <route edges="6:5 5:1 1:3"/>
    </vehicle>
    <vehicle id="223" depart="89.20">
        <route edges="1:0"/>
    </vehicle>
    <vehicle id="224" depart="89.60">
        <route edges="1:0 0:2"/>
    </vehicle>
    <vehicle id="225" depart="90.00">
        <route edges="0:1 1:3 3:7"/>
    </vehicle>
    <vehicle id="226" depart="90.40">
        <route edges="0:1"/>
    </vehicle>
    <vehicle id="227" depart="90.80">
        <route edges="5:1 1:0"/>
    </vehicle>
    <vehicle id="228" depart="91.20">
        <route edges="3:1 1:0 0:2"/>
    </vehicle>
    <vehicle id="229" depart="91.60">
        <route edges="0:1 1:3"/>
    </vehicle>
    <vehicle id="232" depart="92.80">
        <route edges="3:1 1:0"/>
    </vehicle>
    <vehicle id="235" depart="94.00">
        <route edges="7:3 3:1"/>
    </vehicle>
    <vehicle id="236" depart="94.40">
        <route edges="0:1"/>
    </vehicle>
    <vehicle id="237" depart="94.80">
        <route edges="7:3 3:1 1:0 0:2"/>
    </vehicle>
    <vehicle id="239" depart="95.60">
        <route edges="2:0 0:1"/>
    </vehicle>
    <vehicle id="242" depart="96.80">
        <route edges="0:1 1:3 3:7"/>
    </vehicle>
    <vehicle id="245" depart="98.00">
        <route edges="2:0 0:1"/>
    </vehicle>
    <vehicle id="247" depart="98.80">
        <route edges="1:3 3:7"/>
    </vehicle>
    <vehicle id="248" depart="99.20">
        <route edges="7:3 3:1 1:5 5:6"/>
    </vehicle>
    <vehicle id="249" depart="99.60">
        <route edges="1:0 0:2"/>
    </vehicle>
    <vehicle id="252" depart="100.80">
        <route edges="2:0 0:1 1:3 3:7"/>
    </vehicle>
    <vehicle id="256" depart="102.40">
        <route edges="3:1 1:5 5:6"/>
    </vehicle>
    <vehicle id="257" depart="102.80">
        <route edges="1:5 5:6"/>
    </vehicle>
    <vehicle id="260" depart="104.00">
        <route edges="6:5 5:1 1:0"/>
    </vehicle>
    <vehicle id="263" depart="105.20">
        <route edges="7:3 3:1 1:0 0:2"/>
    </vehicle>
    <vehicle id="266" depart="106.40">
        <route edges="7:3 3:1 1:0 0:2"/>
    </vehicle>
    <vehicle id="271" depart="108.40">
        <route edges="2:0 0:1 1:3 3:7"/>
    </vehicle>
    <vehicle id="274" depart="109.60">
        <route edges="7:3 3:1"/>
    </vehicle>
    <vehicle id="276" depart="110.40">
        <route edges="7:3 3:1 1:5 5:6"/>
    </vehicle>
    <vehicle id="278" depart="111.20">
        <route edges="1:0"/>
    </vehicle>
    <vehicle id="279" depart="111.60">
        <route edges="2:0 0:1 1:3"/>
    </vehicle>
    <vehicle id="281" depart="112.40">
        <route edges="5:1 1:3"/>
    </vehicle>
    <vehicle id="287" depart="114.80">
        <route edges="2:0 0:1 1:3 3:7"/>
    </vehicle>
    <vehicle id="291" depart="116.40">
        <route edges="2:0 0:1 1:3 3:7"/>
    </vehicle>
    <vehicle id="292" depart="116.80">
        <route edges="7:3 3:1 1:5"/>
    </vehicle>
    <vehicle id="293" depart="117.20">
        <route edges="2:0 0:1 1:3 3:7"/>
    </vehicle>
    <vehicle id="294" depart="117.60">
        <route edges="7:3 3:1"/>
    </vehicle>
    <vehicle id="295" depart="118.00">
        <route edges="2:0 0:1"/>
    </vehicle>
    <vehicle id="297" depart="118.80">
        <route edges="3:1 1:0 0:2"/>
    </vehicle>
    <vehicle id="304" depart="121.60">
        <route edges="0:1 1:3"/>
    </vehicle>
    <vehicle id="305" depart="122.00">
        <route edges="6:5 5:1 1:0 0:2"/>
    </vehicle>
    <vehicle id="306" depart="122.40">
        <route edges="1:0"/>
    </vehicle>
    <vehicle id="307" depart="122.80">
        <route edges="2:0 0:1 1:5 5:6"/>
    </vehicle>
    <vehicle id="308" depart="123.20">
        <route edges="7:3 3:1 1:0"/>
    </vehicle>
    <vehicle id="309" depart="123.60">
        <route edges="7:3 3:1"/>
    </vehicle>
    <vehicle id="312" depart="124.80">
        <route edges="1:0 0:2"/>
    </vehicle>
    <vehicle id="314" depart="125.60">
        <route edges="2:0 0:1 1:3 3:7"/>
    </vehicle>
    <vehicle id="315" depart="126.00">
        <route edges="1:0"/>
    </vehicle>
    <vehicle id="319" depart="127.60">
        <route edges="2:0 0:1"/>
    </vehicle>
    <vehicle id="320" depart="128.00">
        <route edges="3:1"/>
    </vehicle>
    <vehicle id="321" depart="128.40">
        <route edges="2:0 0:1 1:5 5:6"/>
    </vehicle>
    <vehicle id="322" depart="128.80">
        <route edges="3:1"/>
    </vehicle>
    <vehicle id="323" depart="129.20">
        <route edges="2:0 0:1"/>
    </vehicle>
    <vehicle id="324" depart="129.60">
        <route edges="2:0 0:1 1:5 5:6"/>
    </vehicle>
    <vehicle id="326" depart="130.40">
        <route edges="1:0 0:2"/>
    </vehicle>
    <vehicle id="327" depart="130.80">
        <route edges="5:1"/>
    </vehicle>
    <vehicle id="332" depart="132.80">
        <route edges="3:1 1:5"/>
    </vehicle>
    <vehicle id="333" depart="133.20">
        <route edges="6:5 5:1 1:3"/>
    </vehicle>
    <vehicle id="338" depart="135.20">
        <route edges="2:0 0:1 1:5 5:6"/>
    </vehicle>
    <vehicle id="341" depart="136.40">
        <route edges="0:1 1:3"/>
    </vehicle>
    <vehicle id="342" depart="136.80">
        <route edges="0:1 1:3 3:7"/>
    </vehicle>
    <vehicle id="344" depart="137.60">
        <route edges="3:1 1:0"/>
    </vehicle>
    <vehicle id="347" depart="138.80">
        <route edges="0:1 1:3 3:7"/>
    </vehicle>
    <vehicle id="348" depart="139.20">
        <route edges="1:3 3:7"/>
    </vehicle>
    <vehicle id="350" depart="140.00">
        <route edges="5:1 1:3 3:7"/>
    </vehicle>
    <vehicle id="352" depart="140.80">
        <route edges="7:3 3:1 1:0 0:2"/>
    </vehicle>
    <vehicle id="353" depart="141.20">
        <route edges="1:3"/>
    </vehicle>
    <vehicle id="357" depart="142.80">
        <route edges="0:1 1:3"/>
    </vehicle>
    <vehicle id="358" depart="143.20">
        <route edges="6:5 5:1 1:0 0:2"/>
    </vehicle>
    <vehicle id="363" depart="145.20">
        <route edges="7:3 3:1 1:0 0:2"/>
    </vehicle>
    <vehicle id="364" depart="145.60">
        <route edges="2:0 0:1"/>
    </vehicle>
    <vehicle id="368" depart="147.20">
        <route edges="1:0"/>
    </vehicle>
    <vehicle id="374" depart="149.60">
        <route edges="1:3"/>
    </vehicle>
    <vehicle id="375" depart="150.00">
        <route edges="3:1 1:5 5:6"/>
    </vehicle>
    <vehicle id="376" depart="150.40">
        <route edges="7:3 3:1 1:0 0:2"/>
    </vehicle>
    <vehicle id="377" depart="150.80">
        <route edges="3:1"/>
    </vehicle>
    <vehicle id="378" depart="151.20">
        <route edges="7:3 3:1 1:0 0:2"/>
    </vehicle>
    <vehicle id="386" depart="154.40">
        <route edges="0:1"/>
    </vehicle>
    <vehicle id="389" depart="155.60">
        <route edges="0:1"/>
    </vehicle>
    <vehicle id="390" depart="156.00">
        <route edges="6:5 5:1"/>
    </vehicle>
    <vehicle id="391" depart="156.40">
        <route edges="2:0 0:1 1:5 5:6"/>
    </vehicle>
    <vehicle id="395" depart="158.00">
        <route edges="2:0 0:1"/>
    </vehicle>
    <vehicle id="396" depart="158.40">
        <route edges="3:1 1:0 0:2"/>
    </vehicle>
    <vehicle id="397" depart="158.80">
        <route edges="1:0"/>
    </vehicle>
    <vehicle id="400" depart="160.00">
        <route edges="5:1 1:3"/>
    </vehicle>
    <vehicle id="403" depart="161.20">
        <route edges="6:5 5:1 1:3 3:7"/>
    </vehicle>
    <vehicle id="407" depart="162.80">
        <route edges="2:0 0:1 1:3 3:7"/>
    </vehicle>
    <vehicle id="408" depart="163.20">
        <route edges="1:0 0:2"/>
    </vehicle>
    <vehicle id="409" depart="163.60">
        <route edges="2:0 0:1 1:3 3:7"/>
    </vehicle>
    <vehicle id="410" depart="164.00">
        <route edges="3:1"/>
    </vehicle>
    <vehicle id="415" depart="166.00">
        <route edges="1:0 0:2"/>
    </vehicle>
    <vehicle id="416" depart="166.40">
        <route edges="7:3 3:1 1:5 5:6"/>
    </vehicle>
    <vehicle id="417" depart="166.80">
        <route edges="7:3 3:1 1:0"/>
    </vehicle>
    <vehicle id="419" depart="167.60">
        <route edges="2:0 0:1 1:3 3:7"/>
    </vehicle>
    <vehicle id="422" depart="168.80">
        <route edges="2:0 0:1 1:3 3:7"/>
    </vehicle>
    <vehicle id="424" depart="169.60">
        <route edges="3:1 1:0 0:2"/>
    </vehicle>
    <vehicle id="425" depart="170.00">
        <route edges="6:5 5:1"/>
    </vehicle>
    <vehicle id="430" depart="172.00">
        <route edges="7:3 3:1 1:5 5:6"/>
    </vehicle>
    <vehicle id="432" depart="172.80">
        <route edges="3:1 1:0 0:2"/>
    </vehicle>
    <vehicle id="433" depart="173.20">
        <route edges="6:5 5:1 1:0 0:2"/>
    </vehicle>
    <vehicle id="436" depart="174.40">
        <route edges="1:0"/>
    </vehicle>
    <vehicle id="438" depart="175.20">
        <route edges="3:1 1:0 0:2"/>
    </vehicle>
    <vehicle id="439" depart="175.60">
        <route edges="6:5 5:1 1:0 0:2"/>
    </vehicle>
    <vehicle id="441" depart="176.40">
        <route edges="0:1 1:3"/>
    </vehicle>
    <vehicle id="443" depart="177.20">
        <route edges="0:1 1:3 3:7"/>
    </vehicle>
    <vehicle id="447" depart="178.80">
        <route edges="6:5 5:1 1:3 3:7"/>
    </vehicle>
    <vehicle id="448" depart="179.20">
        <route edges="7:3 3:1 1:5"/>
    </vehicle>
    <vehicle id="449" depart="179.60">
        <route edges="2:0 0:1 1:3 3:7"/>
    </vehicle>
    <vehicle id="450" depart="180.00">
        <route edges="7:3 3:1"/>
    </vehicle>
    <vehicle id="454" depart="181.60">
        <route edges="1:0 0:2"/>
    </vehicle>
    <vehicle id="455" depart="182.00">
        <route edges="2:0 0:1 1:5"/>
    </vehicle>
    <vehicle id="457" depart="182.80">
        <route edges="2:0 0:1 1:3 3:7"/>
    </vehicle>
    <vehicle id="459" depart="183.60">
        <route edges="2:0 0:1 1:3 3:7"/>
    </vehicle>
    <vehicle id="461" depart="184.40">
        <route edges="5:1 1:3 3:7"/>
    </vehicle>
    <vehicle id="465" depart="186.00">
        <route edges="6:5 5:1 1:3"/>
    </vehicle>
    <vehicle id="466" depart="186.40">
        <route edges="2:0 0:1"/>
    </vehicle>
    <vehicle id="470" depart="188.00">
        <route edges="7:3 3:1 1:0 0:2"/>
    </vehicle>
    <vehicle id="473" depart="189.20">
        <route edges="2:0 0:1 1:3 3:7"/>
    </vehicle>
    <vehicle id="479" depart="191.60">
        <route edges="1:0 0:2"/>
    </vehicle>
    <vehicle id="480" depart="192.00">
        <route edges="6:5 5:1 1:0"/>
    </vehicle>
    <vehicle id="482" depart="192.80">
        <route edges="2:0 0:1 1:3 3:7"/>
    </vehicle>
    <vehicle id="485" depart="194.00">
        <route edges="6:5 5:1 1:3"/>
    </vehicle>
    <vehicle id="487" depart="194.80">
        <route edges="3:1 1:0 0:2"/>
    </vehicle>
    <vehicle id="489" depart="195.60">
        <route edges="3:1 1:0"/>
    </vehicle>
    <vehicle id="492" depart="196.80">
        <route edges="5:1 1:3"/>
    </vehicle>
    <vehicle id="493" depart="197.20">
        <route edges="1:0 0:2"/>
    </vehicle>
    <vehicle id="494" depart="197.60">
        <route edges="0:1 1:3 3:7"/>
    </vehicle>
    <vehicle id="496" depart="198.40">
        <route edges="7:3 3:1 1:0"/>
    </vehicle>
    <vehicle id="497" depart="198.80">
        <route edges="2:0 0:1 1:3 3:7"/>
    </vehicle>
    <vehicle id="498" depart="199.20">
        <route edges="7:3 3:1 1:5 5:6"/>
    </vehicle>
    <vehicle id="499" depart="199.60">
        <route edges="2:0 0:1 1:3"/>
    </vehicle>
    <vehicle id="500" depart="200.00">
        <route edges="1:3"/>
    </vehicle>
    <vehicle id="501" depart="200.40">
        <route edges="2:0 0:1 1:3"/>
    </vehicle>
    <vehicle id="504" depart="201.60">
        <route edges="7:3 3:1 1:5"/>
    </vehicle>
    <vehicle id="508" depart="203.20">
        <route edges="7:3 3:1 1:0 0:2"/>
    </vehicle>
    <vehicle id="510" depart="204.00">
        <route edges="6:5 5:1 1:3"/>
    </vehicle>
    <vehicle id="512" depart="204.80">
        <route edges="2:0 0:1"/>
    </vehicle>
    <vehicle id="518" depart="207.20">
        <route edges="7:3 3:1 1:0 0:2"/>
    </vehicle>
    <vehicle id="520" depart="208.00">
        <route edges="2:0 0:1 1:3"/>
    </vehicle>
    <vehicle id="522" depart="208.80">
        <route edges="2:0 0:1 1:3 3:7"/>
    </vehicle>
    <vehicle id="523" depart="209.20">
        <route edges="7:3 3:1 1:5"/>
    </vehicle>
    <vehicle id="525" depart="210.00">
        <route edges="7:3 3:1 1:5 5:6"/>
    </vehicle>
    <vehicle id="526" depart="210.40">
        <route edges="2:0 0:1 1:5"/>
    </vehicle>
    <vehicle id="528" depart="211.20">
        <route edges="1:3"/>
    </vehicle>
    <vehicle id="529" depart="211.60">
        <route edges="0:1 1:3"/>
    </vehicle>
    <vehicle id="532" depart="212.80">
        <route edges="1:3"/>
    </vehicle>
    <vehicle id="534" depart="213.60">
        <route edges="2:0 0:1 1:3 3:7"/>
    </vehicle>
    <vehicle id="535" depart="214.00">
        <route edges="5:1 1:0 0:2"/>
    </vehicle>
    <vehicle id="537" depart="214.80">
        <route edges="0:1 1:3 3:7"/>
    </vehicle>
    <vehicle id="538" depart="215.20">
        <route edges="0:1 1:3 3:7"/>
    </vehicle>
    <vehicle id="541" depart="216.40">
        <route edges="2:0 0:1 1:3"/>
    </vehicle>
    <vehicle id="542" depart="216.80">
        <route edges="3:1"/>
    </vehicle>
    <vehicle id="544" depart="217.60">
        <route edges="6:5 5:1 1:3"/>
    </vehicle>
    <vehicle id="545" depart="218.00">
        <route edges="1:0 0:2"/>
    </vehicle>
    <vehicle id="547" depart="218.80">
        <route edges="0:1 1:3 3:7"/>
    </vehicle>
    <vehicle id="548" depart="219.20">
        <route edges="3:1"/>
    </vehicle>
    <vehicle id="549" depart="219.60">
        <route edges="2:0 0:1 1:3"/>
    </vehicle>
    <vehicle id="550" depart="220.00">
        <route edges="2:0 0:1 1:3"/>
    </vehicle>
    <vehicle id="551" depart="220.40">
        <route edges="1:3 3:7"/>
    </vehicle>
    <vehicle id="552" depart="220.80">
        <route edges="2:0 0:1 1:3 3:7"/>
    </vehicle>
    <vehicle id="553" depart="221.20">
        <route edges="7:3 3:1 1:0"/>
    </vehicle>
    <vehicle id="554" depart="221.60">
        <route edges="7:3 3:1 1:0 0:2"/>
    </vehicle>
    <vehicle id="558" depart="223.20">
        <route edges="1:3 3:7"/>
    </vehicle>
    <vehicle id="560" depart="224.00">
        <route edges="2:0 0:1 1:3"/>
    </vehicle>
    <vehicle id="562" depart="224.80">
        <route edges="5:1 1:3 3:7"/>
    </vehicle>
    <vehicle id="563" depart="225.20">
        <route edges="0:1 1:3"/>
    </vehicle>
    <vehicle id="565" depart="226.00">
        <route edges="0:1 1:3"/>
    </vehicle>
    <vehicle id="569" depart="227.60">
        <route edges="6:5 5:1 1:3 3:7"/>
    </vehicle>
    <vehicle id="572" depart="228.80">
        <route edges="6:5 5:1 1:0 0:2"/>
    </vehicle>
    <vehicle id="574" depart="229.60">
        <route edges="2:0 0:1"/>
    </vehicle>
    <vehicle id="577" depart="230.80">
        <route edges="2:0 0:1 1:3 3:7"/>
    </vehicle>
    <vehicle id="580" depart="232.00">
        <route edges="6:5 5:1 1:0 0:2"/>
    </vehicle>
    <vehicle id="582" depart="232.80">
        <route edges="7:3 3:1 1:5"/>
    </vehicle>
    <vehicle id="584" depart="233.60">
        <route edges="0:1 1:5"/>
    </vehicle>
    <vehicle id="585" depart="234.00">
        <route edges="0:1 1:3"/>
    </vehicle>
    <vehicle id="592" depart="236.80">
        <route edges="3:1 1:0 0:2"/>
    </vehicle>
    <vehicle id="596" depart="238.40">
        <route edges="7:3 3:1 1:0 0:2"/>
    </vehicle>
    <vehicle id="598" depart="239.20">
        <route edges="2:0 0:1 1:3 3:7"/>
    </vehicle>
    <vehicle id="600" depart="240.00">
        <route edges="2:0 0:1 1:3 3:7"/>
    </vehicle>
    <vehicle id="601" depart="240.40">
        <route edges="1:3 3:7"/>
    </vehicle>
    <vehicle id="602" depart="240.80">
        <route edges="2:0 0:1 1:3"/>
    </vehicle>
    <vehicle id="604" depart="241.60">
        <route edges="7:3 3:1 1:0 0:2"/>
    </vehicle>
    <vehicle id="608" depart="243.20">
        <route edges="2:0 0:1 1:3"/>
    </vehicle>
    <vehicle id="609" depart="243.60">
        <route edges="2:0 0:1 1:5 5:6"/>
    </vehicle>
    <vehicle id="610" depart="244.00">
        <route edges="2:0 0:1 1:3 3:7"/>
    </vehicle>
    <vehicle id="612" depart="244.80">
        <route edges="7:3 3:1"/>
    </vehicle>
    <vehicle id="615" depart="246.00">
        <route edges="7:3 3:1 1:5 5:6"/>
    </vehicle>
    <vehicle id="617" depart="246.80">
        <route edges="1:3 3:7"/>
    </vehicle>
    <vehicle id="618" depart="247.20">
        <route edges="1:0 0:2"/>
    </vehicle>
    <vehicle id="619" depart="247.60">
        <route edges="2:0 0:1 1:5 5:6"/>
    </vehicle>
    <vehicle id="622" depart="248.80">
        <route edges="3:1 1:5 5:6"/>
    </vehicle>
    <vehicle id="624" depart="249.60">
        <route edges="1:0"/>
    </vehicle>
    <vehicle id="625" depart="250.00">
        <route edges="0:1 1:3"/>
    </vehicle>
    <vehicle id="628" depart="251.20">
        <route edges="7:3 3:1 1:0 0:2"/>
    </vehicle>
    <vehicle id="636" depart="254.40">
        <route edges="7:3 3:1 1:5"/>
    </vehicle>
    <vehicle id="637" depart="254.80">
        <route edges="3:1 1:0 0:2"/>
    </vehicle>
    <vehicle id="639" depart="255.60">
        <route edges="6:5 5:1 1:0"/>
    </vehicle>
    <vehicle id="641" depart="256.40">
        <route edges="7:3 3:1"/>
    </vehicle>
    <vehicle id="645" depart="258.00">
        <route edges="3:1 1:0"/>
    </vehicle>
    <vehicle id="648" depart="259.20">
        <route edges="0:1 1:3 3:7"/>
    </vehicle>
    <vehicle id="656" depart="262.40">
        <route edges="5:1 1:0 0:2"/>
    </vehicle>
    <vehicle id="657" depart="262.80">
        <route edges="7:3 3:1 1:5"/>
    </vehicle>
    <vehicle id="659" depart="263.60">
        <route edges="7:3 3:1 1:0 0:2"/>
    </vehicle>
    <vehicle id="661" depart="264.40">
        <route edges="0:1"/>