<?xml version="1.0" encoding="UTF-8"?>

<!-- generated on Thu Feb 13 12:39:57 2014 by SUMO duarouter Version 0.18.0
<?xml version="1.0" encoding="UTF-8"?>

<configuration xmlns:xsi="http://www.w3.org/2001/XMLSchema-instance" xsi:noNamespaceSchemaLocation="http://sumo.sf.net/xsd/duarouterConfiguration.xsd">

    <input>
        <net-file value="simpleT.net.xml"/>
        <trip-files value="experimentos/simpleT.p1.0.7.trips.xml"/>
    </input>

    <output>
        <output-file value="experimentos/simpleT.p1.0.7.rou.xml"/>
    </output>

    <processing>
        <ignore-errors value="true"/>
    </processing>

    <random_number>
        <random value="true"/>
    </random_number>

</configuration>
-->

<routes xmlns:xsi="http://www.w3.org/2001/XMLSchema-instance" xsi:noNamespaceSchemaLocation="http://sumo.sf.net/xsd/routes_file.xsd">
    <vehicle id="0" depart="0.00">
        <route edges="1:0 0:2"/>
    </vehicle>
    <vehicle id="2" depart="2.00">
        <route edges="6:5 5:1 1:0 0:2"/>
    </vehicle>
    <vehicle id="4" depart="4.00">
        <route edges="2:0 0:1 1:5 5:6"/>
    </vehicle>
    <vehicle id="7" depart="7.00">
        <route edges="2:0 0:1 1:5 5:6"/>
    </vehicle>
    <vehicle id="8" depart="8.00">
        <route edges="7:3 3:1"/>
    </vehicle>
    <vehicle id="10" depart="10.00">
        <route edges="2:0 0:1 1:3 3:7"/>
    </vehicle>
    <vehicle id="13" depart="13.00">
        <route edges="3:1 1:5 5:6"/>
    </vehicle>
    <vehicle id="14" depart="14.00">
        <route edges="7:3 3:1 1:0 0:2"/>
    </vehicle>
    <vehicle id="16" depart="16.00">
        <route edges="1:0 0:2"/>
    </vehicle>
    <vehicle id="17" depart="17.00">
        <route edges="0:1"/>
    </vehicle>
    <vehicle id="18" depart="18.00">
        <route edges="0:1 1:5"/>
    </vehicle>
    <vehicle id="19" depart="19.00">
        <route edges="5:1 1:3 3:7"/>
    </vehicle>
    <vehicle id="21" depart="21.00">
        <route edges="0:1"/>
    </vehicle>
    <vehicle id="22" depart="22.00">
        <route edges="1:3 3:7"/>
    </vehicle>
    <vehicle id="28" depart="28.00">
        <route edges="3:1 1:0 0:2"/>
    </vehicle>
    <vehicle id="30" depart="30.00">
        <route edges="6:5 5:1"/>
    </vehicle>
    <vehicle id="31" depart="31.00">
        <route edges="1:3 3:7"/>
    </vehicle>
    <vehicle id="33" depart="33.00">
        <route edges="7:3 3:1 1:5"/>
    </vehicle>
    <vehicle id="34" depart="34.00">
        <route edges="2:0 0:1 1:3"/>
    </vehicle>
    <vehicle id="36" depart="36.00">
        <route edges="0:1 1:3 3:7"/>
    </vehicle>
    <vehicle id="37" depart="37.00">
        <route edges="1:3 3:7"/>
    </vehicle>
    <vehicle id="38" depart="38.00">
        <route edges="2:0 0:1 1:3"/>
    </vehicle>
    <vehicle id="40" depart="40.00">
        <route edges="3:1 1:0"/>
    </vehicle>
    <vehicle id="44" depart="44.00">
        <route edges="5:1 1:0 0:2"/>
    </vehicle>
    <vehicle id="46" depart="46.00">
        <route edges="2:0 0:1 1:3 3:7"/>
    </vehicle>
    <vehicle id="49" depart="49.00">
        <route edges="5:1 1:0 0:2"/>
    </vehicle>
    <vehicle id="51" depart="51.00">
        <route edges="6:5 5:1 1:0 0:2"/>
    </vehicle>
    <vehicle id="53" depart="53.00">
        <route edges="0:1 1:3 3:7"/>
    </vehicle>
    <vehicle id="56" depart="56.00">
        <route edges="2:0 0:1 1:5"/>
    </vehicle>
    <vehicle id="58" depart="58.00">
        <route edges="7:3 3:1 1:0 0:2"/>
    </vehicle>
    <vehicle id="59" depart="59.00">
        <route edges="5:1 1:0"/>
    </vehicle>
    <vehicle id="60" depart="60.00">
        <route edges="2:0 0:1 1:3 3:7"/>
    </vehicle>
    <vehicle id="62" depart="62.00">
        <route edges="7:3 3:1 1:0 0:2"/>
    </vehicle>
    <vehicle id="63" depart="63.00">
        <route edges="3:1 1:0 0:2"/>
    </vehicle>
    <vehicle id="64" depart="64.00">
        <route edges="2:0 0:1 1:5 5:6"/>
    </vehicle>
    <vehicle id="66" depart="66.00">
        <route edges="1:3 3:7"/>
    </vehicle>
    <vehicle id="68" depart="68.00">
        <route edges="3:1 1:0 0:2"/>
    </vehicle>
    <vehicle id="70" depart="70.00">
        <route edges="7:3 3:1"/>
    </vehicle>
    <vehicle id="73" depart="73.00">
        <route edges="1:0 0:2"/>
    </vehicle>
    <vehicle id="76" depart="76.00">
        <route edges="7:3 3:1"/>
    </vehicle>
    <vehicle id="77" depart="77.00">
        <route edges="7:3 3:1 1:0"/>
    </vehicle>
    <vehicle id="78" depart="78.00">
        <route edges="5:1 1:0 0:2"/>
    </vehicle>
    <vehicle id="79" depart="79.00">
        <route edges="7:3 3:1 1:0"/>
    </vehicle>
    <vehicle id="81" depart="81.00">
        <route edges="1:0 0:2"/>
    </vehicle>
    <vehicle id="84" depart="84.00">
        <route edges="7:3 3:1 1:5 5:6"/>
    </vehicle>
    <vehicle id="88" depart="88.00">
        <route edges="5:1 1:0 0:2"/>
    </vehicle>
    <vehicle id="89" depart="89.00">
        <route edges="2:0 0:1 1:5 5:6"/>
    </vehicle>
    <vehicle id="97" depart="97.00">
        <route edges="7:3 3:1 1:5 5:6"/>
    </vehicle>
    <vehicle id="100" depart="100.00">
        <route edges="7:3 3:1 1:5 5:6"/>
    </vehicle>
    <vehicle id="103" depart="103.00">
        <route edges="7:3 3:1"/>
    </vehicle>
    <vehicle id="104" depart="104.00">
        <route edges="6:5 5:1 1:0"/>
    </vehicle>
    <vehicle id="105" depart="105.00">
        <route edges="7:3 3:1 1:0 0:2"/>
    </vehicle>
    <vehicle id="109" depart="109.00">
        <route edges="3:1 1:5"/>
    </vehicle>
    <vehicle id="111" depart="111.00">
        <route edges="5:1 1:0"/>
    </vehicle>
    <vehicle id="114" depart="114.00">
        <route edges="5:1 1:3"/>
    </vehicle>
    <vehicle id="115" depart="115.00">
        <route edges="2:0 0:1 1:3"/>
    </vehicle>
    <vehicle id="116" depart="116.00">
        <route edges="1:0"/>
    </vehicle>
    <vehicle id="117" depart="117.00">
        <route edges="6:5 5:1 1:0 0:2"/>
    </vehicle>
    <vehicle id="121" depart="121.00">
        <route edges="1:3 3:7"/>
    </vehicle>
    <vehicle id="123" depart="123.00">
        <route edges="2:0 0:1 1:3"/>
    </vehicle>
    <vehicle id="125" depart="125.00">
        <route edges="3:1"/>
    </vehicle>
    <vehicle id="126" depart="126.00">
        <route edges="1:0 0:2"/>
    </vehicle>
    <vehicle id="128" depart="128.00">
        <route edges="7:3 3:1 1:5"/>
    </vehicle>
    <vehicle id="130" depart="130.00">
        <route edges="7:3 3:1 1:5 5:6"/>
    </vehicle>
    <vehicle id="132" depart="132.00">
        <route edges="2:0 0:1 1:5 5:6"/>
    </vehicle>
    <vehicle id="138" depart="138.00">
        <route edges="1:0 0:2"/>
    </vehicle>
    <vehicle id="139" depart="139.00">
        <route edges="7:3 3:1 1:0"/>
    </vehicle>
    <vehicle id="141" depart="141.00">
        <route edges="1:3 3:7"/>
    </vehicle>
    <vehicle id="142" depart="142.00">
        <route edges="2:0 0:1 1:3"/>
    </vehicle>
    <vehicle id="145" depart="145.00">
        <route edges="7:3 3:1 1:5"/>
    </vehicle>
    <vehicle id="146" depart="146.00">
        <route edges="7:3 3:1 1:0 0:2"/>
    </vehicle>
    <vehicle id="148" depart="148.00">
        <route edges="1:3 3:7"/>
    </vehicle>
    <vehicle id="150" depart="150.00">
        <route edges="1:3 3:7"/>
    </vehicle>
    <vehicle id="153" depart="153.00">
        <route edges="7:3 3:1"/>
    </vehicle>
    <vehicle id="154" depart="154.00">
        <route edges="2:0 0:1 1:3"/>
    </vehicle>
    <vehicle id="157" depart="157.00">
        <route edges="5:1 1:3"/>
    </vehicle>
    <vehicle id="159" depart="159.00">
        <route edges="1:3"/>
    </vehicle>
    <vehicle id="160" depart="160.00">
        <route edges="0:1 1:5 5:6"/>
    </vehicle>
    <vehicle id="161" depart="161.00">
        <route edges="6:5 5:1 1:3 3:7"/>
    </vehicle>
    <vehicle id="166" depart="166.00">
        <route edges="2:0 0:1 1:3 3:7"/>
    </vehicle>
    <vehicle id="168" depart="168.00">
        <route edges="7:3 3:1 1:0 0:2"/>
    </vehicle>
    <vehicle id="170" depart="170.00">
        <route edges="1:0"/>
    </vehicle>
    <vehicle id="171" depart="171.00">
        <route edges="5:1 1:0 0:2"/>
    </vehicle>
    <vehicle id="173" depart="173.00">
        <route edges="3:1 1:5 5:6"/>
    </vehicle>
    <vehicle id="174" depart="174.00">
        <route edges="7:3 3:1"/>
    </vehicle>
    <vehicle id="175" depart="175.00">
        <route edges="1:0 0:2"/>
    </vehicle>
    <vehicle id="176" depart="176.00">
        <route edges="0:1 1:3"/>
    </vehicle>
    <vehicle id="177" depart="177.00">
        <route edges="3:1 1:0 0:2"/>
    </vehicle>
    <vehicle id="178" depart="178.00">
        <route edges="5:1 1:0 0:2"/>
    </vehicle>
    <vehicle id="181" depart="181.00">
        <route edges="6:5 5:1 1:0"/>
    </vehicle>
    <vehicle id="183" depart="183.00">
        <route edges="3:1 1:0 0:2"/>
    </vehicle>
    <vehicle id="186" depart="186.00">
        <route edges="3:1 1:0"/>
    </vehicle>
    <vehicle id="188" depart="188.00">
        <route edges="2:0 0:1 1:5"/>
    </vehicle>
    <vehicle id="194" depart="194.00">
        <route edges="7:3 3:1 1:0 0:2"/>
    </vehicle>
    <vehicle id="197" depart="197.00">
        <route edges="2:0 0:1 1:5 5:6"/>
    </vehicle>
    <vehicle id="199" depart="199.00">
        <route edges="2:0 0:1 1:5"/>
    </vehicle>
    <vehicle id="200" depart="200.00">
        <route edges="2:0 0:1 1:3"/>
    </vehicle>
    <vehicle id="202" depart="202.00">
        <route edges="0:1"/>
    </vehicle>
    <vehicle id="203" depart="203.00">
        <route edges="1:3 3:7"/>
    </vehicle>
    <vehicle id="204" depart="204.00">
        <route edges="5:1 1:0 0:2"/>
    </vehicle>
    <vehicle id="205" depart="205.00">
        <route edges="7:3 3:1 1:0 0:2"/>
    </vehicle>
    <vehicle id="208" depart="208.00">
        <route edges="0:1 1:5 5:6"/>
    </vehicle>
    <vehicle id="209" depart="209.00">
        <route edges="2:0 0:1 1:3 3:7"/>
    </vehicle>
    <vehicle id="212" depart="212.00">
        <route edges="6:5 5:1 1:0"/>
    </vehicle>
    <vehicle id="213" depart="213.00">
        <route edges="7:3 3:1 1:0 0:2"/>
    </vehicle>
    <vehicle id="214" depart="214.00">
        <route edges="7:3 3:1 1:5 5:6"/>
    </vehicle>
    <vehicle id="216" depart="216.00">
        <route edges="3:1 1:0"/>
    </vehicle>
    <vehicle id="221" depart="221.00">
        <route edges="1:0 0:2"/>
    </vehicle>
    <vehicle id="222" depart="222.00">
        <route edges="6:5 5:1 1:3 3:7"/>
    </vehicle>
    <vehicle id="223" depart="223.00">
        <route edges="2:0 0:1 1:3 3:7"/>
    </vehicle>
    <vehicle id="226" depart="226.00">
        <route edges="7:3 3:1"/>
    </vehicle>
    <vehicle id="227" depart="227.00">
        <route edges="6:5 5:1 1:0 0:2"/>
    </vehicle>
    <vehicle id="229" depart="229.00">
        <route edges="3:1 1:0 0:2"/>
    </vehicle>
    <vehicle id="230" depart="230.00">
        <route edges="0:1 1:3 3:7"/>
    </vehicle>
    <vehicle id="232" depart="232.00">
        <route edges="7:3 3:1 1:0 0:2"/>
    </vehicle>
    <vehicle id="234" depart="234.00">
        <route edges="2:0 0:1"/>
    </vehicle>
    <vehicle id="235" depart="235.00">
        <route edges="7:3 3:1 1:0 0:2"/>
    </vehicle>
    <vehicle id="239" depart="239.00">
        <route edges="7:3 3:1"/>
    </vehicle>
    <vehicle id="241" depart="241.00">
        <route edges="7:3 3:1 1:0"/>
    </vehicle>
    <vehicle id="242" depart="242.00">
        <route edges="0:1 1:3 3:7"/>
    </vehicle>
    <vehicle id="243" depart="243.00">
        <route edges="7:3 3:1"/>
    </vehicle>
    <vehicle id="244" depart="244.00">
        <route edges="2:0 0:1 1:5"/>
    </vehicle>
    <vehicle id="245" depart="245.00">
        <route edges="6:5 5:1 1:0 0:2"/>
    </vehicle>
    <vehicle id="248" depart="248.00">
        <route edges="2:0 0:1 1:3 3:7"/>
    </vehicle>
    <vehicle id="251" depart="251.00">
        <route edges="2:0 0:1 1:3"/>
    </vehicle>
    <vehicle id="256" depart="256.00">
        <route edges="1:3 3:7"/>
    </vehicle>
    <vehicle id="262" depart="262.00">
        <route edges="5:1 1:0"/>
    </vehicle>
    <vehicle id="263" depart="263.00">
        <route edges="3:1 1:5"/>
    </vehicle>
    <vehicle id="265" depart="265.00">
        <route edges="5:1 1:0 0:2"/>
    </vehicle>
    <vehicle id="266" depart="266.00">
        <route edges="1:0 0:2"/>
    </vehicle>
    <vehicle id="267" depart="267.00">
        <route edges="0:1 1:3 3:7"/>
    </vehicle>
    <vehicle id="269" depart="269.00">
        <route edges="7:3 3:1 1:0"/>
    </vehicle>
    <vehicle id="270" depart="270.00">
        <route edges="2:0 0:1 1:3 3:7"/>
    </vehicle>
    <vehicle id="272" depart="272.00">
        <route edges="7:3 3:1 1:0"/>
    </vehicle>
    <vehicle id="278" depart="278.00">
        <route edges="5:1 1:0 0:2"/>
    </vehicle>
    <vehicle id="283" depart="283.00">
        <route edges="1:0 0:2"/>
    </vehicle>
    <vehicle id="285" depart="285.00">
        <route edges="2:0 0:1 1:3"/>
    </vehicle>
    <vehicle id="286" depart="286.00">
        <route edges="7:3 3:1 1:0"/>
    </vehicle>
    <vehicle id="287" depart="287.00">
        <route edges="2:0 0:1 1:3"/>
    </vehicle>
    <vehicle id="288" depart="288.00">
        <route edges="1:3 3:7"/>
    </vehicle>
    <vehicle id="289" depart="289.00">
        <route edges="2:0 0:1 1:5"/>
    </vehicle>
    <vehicle id="293" depart="293.00">
        <route edges="1:5 5:6"/>
    </vehicle>
    <vehicle id="294" depart="294.00">
        <route edges="7:3 3:1 1:5 5:6"/>
    </vehicle>
    <vehicle id="295" depart="295.00">
        <route edges="6:5 5:1 1:0 0:2"/>
    </vehicle>
    <vehicle id="299" depart="299.00">
        <route edges="0:1 1:3 3:7"/>
    </vehicle>
    <vehicle id="300" depart="300.00">
        <route edges="5:1 1:0"/>
    </vehicle>
    <vehicle id="302" depart="302.00">
        <route edges="6:5 5:1 1:0"/>
    </vehicle>
    <vehicle id="303" depart="303.00">
        <route edges="2:0 0:1 1:3"/>
    </vehicle>
    <vehicle id="306" depart="306.00">
        <route edges="7:3 3:1 1:0 0:2"/>
    </vehicle>
    <vehicle id="307" depart="307.00">
        <route edges="1:0 0:2"/>
    </vehicle>
    <vehicle id="309" depart="309.00">
        <route edges="3:1"/>
    </vehicle>
    <vehicle id="310" depart="310.00">
        <route edges="1:3 3:7"/>
    </vehicle>
    <vehicle id="312" depart="312.00">
        <route edges="2:0 0:1"/>
    </vehicle>
    <vehicle id="313" depart="313.00">
        <route edges="2:0 0:1 1:3 3:7"/>
    </vehicle>
    <vehicle id="315" depart="315.00">
        <route edges="0:1 1:3"/>
    </vehicle>
    <vehicle id="316" depart="316.00">
        <route edges="7:3 3:1 1:0 0:2"/>
    </vehicle>
    <vehicle id="321" depart="321.00">
        <route edges="0:1 1:3"/>
    </vehicle>
    <vehicle id="322" depart="322.00">
        <route edges="1:0 0:2"/>
    </vehicle>
    <vehicle id="325" depart="325.00">
        <route edges="2:0 0:1 1:3 3:7"/>
    </vehicle>
    <vehicle id="326" depart="326.00">
        <route edges="3:1 1:0 0:2"/>
    </vehicle>
    <vehicle id="330" depart="330.00">
        <route edges="2:0 0:1"/>
    </vehicle>
    <vehicle id="335" depart="335.00">
        <route edges="5:1"/>
    </vehicle>
    <vehicle id="336" depart="336.00">
        <route edges="2:0 0:1"/>
    </vehicle>
    <vehicle id="337" depart="337.00">
        <route edges="5:1 1:3 3:7"/>
    </vehicle>
    <vehicle id="340" depart="340.00">
        <route edges="7:3 3:1 1:0 0:2"/>
    </vehicle>
    <vehicle id="343" depart="343.00">
        <route edges="2:0 0:1"/>
    </vehicle>
    <vehicle id="344" depart="344.00">
        <route edges="2:0 0:1 1:3 3:7"/>
    </vehicle>
    <vehicle id="345" depart="345.00">
        <route edges="3:1 1:0"/>
    </vehicle>
    <vehicle id="348" depart="348.00">
        <route edges="2:0 0:1 1:3"/>
    </vehicle>
    <vehicle id="350" depart="350.00">
        <route edges="1:0"/>
    </vehicle>
    <vehicle id="351" depart="351.00">
        <route edges="7:3 3:1 1:0 0:2"/>
    </vehicle>
    <vehicle id="353" depart="353.00">
        <route edges="2:0 0:1 1:5 5:6"/>
    </vehicle>
    <vehicle id="354" depart="354.00">
        <route edges="3:1 1:0 0:2"/>
    </vehicle>
    <vehicle id="355" depart="355.00">
        <route edges="7:3 3:1 1:5"/>
    </vehicle>
    <vehicle id="356" depart="356.00">
        <route edges="3:1 1:0 0:2"/>
    </vehicle>
    <vehicle id="357" depart="357.00">
        <route edges="1:3 3:7"/>
    </vehicle>
    <vehicle id="361" depart="361.00">
        <route edges="1:0 0:2"/>
    </vehicle>
    <vehicle id="362" depart="362.00">
        <route edges="7:3 3:1 1:5"/>
    </vehicle>
    <vehicle id="363" depart="363.00">
        <route edges="3:1"/>
    </vehicle>
    <vehicle id="364" depart="364.00">
        <route edges="2:0 0:1 1:5 5:6"/>
    </vehicle>
    <vehicle id="366" depart="366.00">
        <route edges="7:3 3:1 1:5 5:6"/>
    </vehicle>
    <vehicle id="367" depart="367.00">
        <route edges="3:1 1:0"/>
    </vehicle>
    <vehicle id="368" depart="368.00">
        <route edges="7:3 3:1"/>
    </vehicle>
    <vehicle id="369" depart="369.00">
        <route edges="2:0 0:1 1:3 3:7"/>
    </vehicle>
    <vehicle id="371" depart="371.00">
        <route edges="2:0 0:1 1:3"/>
    </vehicle>
    <vehicle id="372" depart="372.00">
        <route edges="7:3 3:1"/>
    </vehicle>
    <vehicle id="374" depart="374.00">
        <route edges="3:1"/>
    </vehicle>
    <vehicle id="375" depart="375.00">
        <route edges="1:0 0:2"/>
    </vehicle>
    <vehicle id="376" depart="376.00">
        <route edges="2:0 0:1 1:5"/>
    </vehicle>
    <vehicle id="377" depart="377.00">
        <route edges="2:0 0:1 1:3 3:7"/>
    </vehicle>
    <vehicle id="378" depart="378.00">
        <route edges="1:3 3:7"/>
    </vehicle>
    <vehicle id="379" depart="379.00">
        <route edges="2:0 0:1 1:5 5:6"/>
    </vehicle>
    <vehicle id="380" depart="380.00">
        <route edges="2:0 0:1 1:3"/>
    </vehicle>
    <vehicle id="381" depart="381.00">
        <route edges="2:0 0:1 1:5 5:6"/>
    </vehicle>
    <vehicle id="383" depart="383.00">
        <route edges="1:3 3:7"/>
    </vehicle>
    <vehicle id="389" depart="389.00">
        <route edges="0:1 1:3 3:7"/>
    </vehicle>
    <vehicle id="392" depart="392.00">
        <route edges="1:5 5:6"/>
    </vehicle>
    <vehicle id="393" depart="393.00">
        <route edges="1:0 0:2"/>
    </vehicle>
    <vehicle id="394" depart="394.00">
        <route edges="3:1 1:0 0:2"/>
    </vehicle>
    <vehicle id="396" depart="396.00">
        <route edges="2:0 0:1 1:3 3:7"/>
    </vehicle>
    <vehicle id="398" depart="398.00">
        <route edges="3:1 1:0 0:2"/>
    </vehicle>
    <vehicle id="399" depart="399.00">
        <route edges="6:5 5:1 1:0"/>
    </vehicle>
    <vehicle id="400" depart="400.00">
        <route edges="3:1 1:0"/>
    </vehicle>
    <vehicle id="401" depart="401.00">
        <route edges="0:1"/>
    </vehicle>
    <vehicle id="402" depart="402.00">
        <route edges="7:3 3:1 1:0 0:2"/>
    </vehicle>
    <vehicle id="403" depart="403.00">
        <route edges="6:5 5:1 1:0 0:2"/>
    </vehicle>
    <vehicle id="405" depart="405.00">
        <route edges="2:0 0:1"/>
    </vehicle>
    <vehicle id="407" depart="407.00">
        <route edges="7:3 3:1 1:0 0:2"/>
    </vehicle>
    <vehicle id="409" depart="409.00">
        <route edges="2:0 0:1 1:3"/>
    </vehicle>
    <vehicle id="411" depart="411.00">
        <route edges="6:5 5:1 1:0"/>
    </vehicle>
    <vehicle id="412" depart="412.00">
        <route edges="3:1 1:5 5:6"/>
    </vehicle>
    <vehicle id="413" depart="413.00">
        <route edges="1:0"/>
    </vehicle>
    <vehicle id="414" depart="414.00">
        <route edges="7:3 3:1 1:0 0:2"/>
    </vehicle>
    <vehicle id="417" depart="417.00">
        <route edges="7:3 3:1 1:0 0:2"/>
    </vehicle>
    <vehicle id="418" depart="418.00">
        <route edges="7:3 3:1"/>
    </vehicle>
    <vehicle id="421" depart="421.00">
        <route edges="0:1 1:3 3:7"/>
    </vehicle>
    <vehicle id="422" depart="422.00">
        <route edges="6:5 5:1 1:3 3:7"/>
    </vehicle>
    <vehicle id="423" depart="423.00">
        <route edges="1:3 3:7"/>
    </vehicle>
    <vehicle id="429" depart="429.00">
        <route edges="0:1 1:3 3:7"/>
    </vehicle>
    <vehicle id="430" depart="430.00">
        <route edges="7:3 3:1"/>
    </vehicle>
    <vehicle id="439" depart="439.00">
        <route edges="2:0 0:1 1:5"/>
    </vehicle>
    <vehicle id="441" depart="441.00">
        <route edges="1:3 3:7"/>
    </vehicle>
    <vehicle id="442" depart="442.00">
        <route edges="1:0"/>
    </vehicle>
    <vehicle id="444" depart="444.00">
        <route edges="2:0 0:1 1:3"/>
    </vehicle>
    <vehicle id="445" depart="445.00">
        <route edges="3:1 1:0 0:2"/>
    </vehicle>
    <vehicle id="446" depart="446.00">
        <route edges="2:0 0:1 1:5"/>
    </vehicle>
    <vehicle id="447" depart="447.00">
        <route edges="3:1 1:0 0:2"/>
    </vehicle>
    <vehicle id="448" depart="448.00">
        <route edges="2:0 0:1"/>
    </vehicle>
    <vehicle id="449" depart="449.00">
        <route edges="6:5 5:1 1:3"/>
    </vehicle>
    <vehicle id="450" depart="450.00">
        <route edges="6:5 5:1 1:0 0:2"/>
    </vehicle>
    <vehicle id="452" depart="452.00">
        <route edges="2:0 0:1 1:3 3:7"/>
    </vehicle>
    <vehicle id="453" depart="453.00">
        <route edges="5:1 1:3 3:7"/>
    </vehicle>
    <vehicle id="455" depart="455.00">
        <route edges="6:5 5:1 1:0 0:2"/>
    </vehicle>
    <vehicle id="456" depart="456.00">
        <route edges="1:0"/>
    </vehicle>
    <vehicle id="459" depart="459.00">
        <route edges="0:1 1:3 3:7"/>
    </vehicle>
    <vehicle id="460" depart="460.00">
        <route edges="2:0 0:1 1:3 3:7"/>
    </vehicle>
    <vehicle id="461" depart="461.00">
        <route edges="5:1 1:0"/>
    </vehicle>
    <vehicle id="462" depart="462.00">
        <route edges="7:3 3:1 1:0 0:2"/>
    </vehicle>
    <vehicle id="463" depart="463.00">
        <route edges="2:0 0:1 1:5"/>
    </vehicle>
    <vehicle id="464" depart="464.00">
        <route edges="1:3 3:7"/>
    </vehicle>
    <vehicle id="465" depart="465.00">
        <route edges="0:1 1:5"/>
    </vehicle>
    <vehicle id="467" depart="467.00">
        <route edges="7:3 3:1 1:0 0:2"/>
    </vehicle>
    <vehicle id="470" depart="470.00">
        <route edges="2:0 0:1"/>
    </vehicle>
    <vehicle id="472" depart="472.00">
        <route edges="7:3 3:1 1:5 5:6"/>
    </vehicle>
    <vehicle id="473" depart="473.00">
        <route edges="2:0 0:1 1:3"/>
    </vehicle>
    <vehicle id="474" depart="474.00">
        <route edges="5:1"/>
    </vehicle>
    <vehicle id="478" depart="478.00">
        <route edges="7:3 3:1 1:0"/>
    </vehicle>
    <vehicle id="480" depart="480.00">
        <route edges="7:3 3:1 1:0 0:2"/>
    </vehicle>
    <vehicle id="482" depart="482.00">
        <route edges="0:1"/>
    </vehicle>
    <vehicle id="483" depart="483.00">
        <route edges="0:1 1:3 3:7"/>
    </vehicle>
    <vehicle id="484" depart="484.00">
        <route edges="7:3 3:1 1:5 5:6"/>
    </vehicle>
    <vehicle id="485" depart="485.00">
        <route edges="2:0 0:1 1:3 3:7"/>
    </vehicle>
    <vehicle id="486" depart="486.00">
        <route edges="2:0 0:1 1:3"/>
    </vehicle>
    <vehicle id="487" depart="487.00">
        <route edges="6:5 5:1 1:0 0:2"/>
    </vehicle>
    <vehicle id="488" depart="488.00">
        <route edges="6:5 5:1 1:0"/>
    </vehicle>
    <vehicle id="489" depart="489.00">
        <route edges="6:5 5:1 1:3 3:7"/>
    </vehicle>
    <vehicle id="490" depart="490.00">
        <route edges="3:1 1:0"/>
    </vehicle>
    <vehicle id="495" depart="495.00">
        <route edges="7:3 3:1 1:5 5:6"/>
    </vehicle>
    <vehicle id="498" depart="498.00">
        <route edges="2:0 0:1 1:3"/>
    </vehicle>
    <vehicle id="499" depart="499.00">
        <route edges="0:1 1:3 3:7"/>
    </vehicle>
    <vehicle id="502" depart="502.00">
        <route edges="1:3"/>
    </vehicle>
    <vehicle id="504" depart="504.00">
        <route edges="7:3 3:1 1:0 0:2"/>
    </vehicle>
    <vehicle id="505" depart="505.00">
        <route edges="1:0 0:2"/>
    </vehicle>
    <vehicle id="506" depart="506.00">
        <route edges="7:3 3:1 1:0 0:2"/>
    </vehicle>
    <vehicle id="507" depart="507.00">
        <route edges="7:3 3:1 1:5"/>
    </vehicle>
    <vehicle id="509" depart="509.00">
        <route edges="6:5 5:1 1:0 0:2"/>
    </vehicle>
    <vehicle id="510" depart="510.00">
        <route edges="0:1"/>
    </vehicle>
    <vehicle id="511" depart="511.00">
        <route edges="2:0 0:1 1:5 5:6"/>
    </vehicle>
    <vehicle id="512" depart="512.00">
        <route edges="1:3 3:7"/>
    </vehicle>
    <vehicle id="513" depart="513.00">
        <route edges="2:0 0:1 1:5"/>
    </vehicle>
    <vehicle id="514" depart="514.00">
        <route edges="0:1 1:3 3:7"/>
    </vehicle>
    <vehicle id="515" depart="515.00">
        <route edges="2:0 0:1 1:5 5:6"/>
    </vehicle>
    <vehicle id="516" depart="516.00">
        <route edges="7:3 3:1 1:0"/>
    </vehicle>
    <vehicle id="518" depart="518.00">
        <route edges="1:3 3:7"/>
    </vehicle>
    <vehicle id="521" depart="521.00">
        <route edges="2:0 0:1 1:3"/>
    </vehicle>
    <vehicle id="523" depart="523.00">
        <route edges="3:1"/>
    </vehicle>
    <vehicle id="526" depart="526.00">
        <route edges="7:3 3:1"/>
    </vehicle>
    <vehicle id="527" depart="527.00">
        <route edges="2:0 0:1"/>
    </vehicle>
    <vehicle id="530" depart="530.00">
        <route edges="3:1 1:5"/>
    </vehicle>
    <vehicle id="534" depart="534.00">
        <route edges="1:0 0:2"/>
    </vehicle>
    <vehicle id="537" depart="537.00">
        <route edges="3:1"/>
    </vehicle>
    <vehicle id="538" depart="538.00">
        <route edges="3:1 1:5 5:6"/>
    </vehicle>
    <vehicle id="539" depart="539.00">
        <route edges="0:1 1:5 5:6"/>
    </vehicle>
    <vehicle id="540" depart="540.00">
        <route edges="0:1 1:5 5:6"/>
    </vehicle>
    <vehicle id="542" depart="542.00">
        <route edges="3:1 1:0 0:2"/>
    </vehicle>
    <vehicle id="543" depart="543.00">
        <route edges="3:1 1:0 0:2"/>
    </vehicle>
    <vehicle id="550" depart="550.00">
        <route edges="2:0 0:1 1:3"/>
    </vehicle>
    <vehicle id="551" depart="551.00">
        <route edges="2:0 0:1 1:3 3:7"/>
    </vehicle>
    <vehicle id="559" depart="559.00">
        <route edges="0:1 1:3"/>
    </vehicle>
    <vehicle id="560" depart="560.00">
        <route edges="2:0 0:1 1:5 5:6"/>
    </vehicle>
    <vehicle id="564" depart="564.00">
        <route edges="2:0 0:1 1:3"/>
    </vehicle>
    <vehicle id="565" depart="565.00">
        <route edges="1:5"/>
    </vehicle>
    <vehicle id="567" depart="567.00">
        <route edges="7:3 3:1 1:0 0:2"/>
    </vehicle>
    <vehicle id="568" depart="568.00">
        <route edges="1:0"/>
    </vehicle>
    <vehicle id="570" depart="570.00">
        <route edges="5:1 1:0 0:2"/>
    </vehicle>
    <vehicle id="571" depart="571.00">
        <route edges="2:0 0:1 1:3 3:7"/>
    </vehicle>
    <vehicle id="572" depart="572.00">
        <route edges="3:1 1:0"/>
    </vehicle>
    <vehicle id="573" depart="573.00">
        <route edges="3:1 1:0 0:2"/>
    </vehicle>
    <vehicle id="575" depart="575.00">
        <route edges="0:1 1:5 5:6"/>
    </vehicle>
    <vehicle id="576" depart="576.00">
        <route edges="3:1 1:5 5:6"/>
    </vehicle>
    <vehicle id="579" depart="579.00">
        <route edges="5:1 1:0 0:2"/>
    </vehicle>
    <vehicle id="586" depart="586.00">
        <route edges="7:3 3:1 1:5 5:6"/>
    </vehicle>
    <vehicle id="588" depart="588.00">
        <route edges="6:5 5:1 1:3"/>
    </vehicle>
    <vehicle id="590" depart="590.00">
        <route edges="2:0 0:1 1:3"/>
    </vehicle>
    <vehicle id="591" depart="591.00">
        <route edges="2:0 0:1 1:3 3:7"/>
    </vehicle>
    <vehicle id="596" depart="596.00">
        <route edges="0:1"/>
    </vehicle>
    <vehicle id="599" depart="599.00">
        <route edges="7:3 3:1 1:5 5:6"/>
    </vehicle>
    <vehicle id="600" depart="600.00">
        <route edges="0:1"/>
    </vehicle>
    <vehicle id="601" depart="601.00">
        <route edges="2:0 0:1 1:5"/>
    </vehicle>
    <vehicle id="602" depart="602.00">
        <route edges="7:3 3:1 1:0"/>
    </vehicle>
    <vehicle id="603" depart="603.00">
        <route edges="3:1 1:0"/>
    </vehicle>
    <vehicle id="604" depart="604.00">
        <route edges="3:1 1:0"/>
    </vehicle>
    <vehicle id="605" depart="605.00">
        <route edges="7:3 3:1 1:0 0:2"/>
    </vehicle>
    <vehicle id="606" depart="606.00">
        <route edges="1:0 0:2"/>
    </vehicle>
    <vehicle id="610" depart="610.00">
        <route edges="7:3 3:1 1:5 5:6"/>
    </vehicle>
    <vehicle id="613" depart="613.00">
        <route edges="6:5 5:1 1:3"/>
    </vehicle>
    <vehicle id="615" depart="615.00">
        <route edges="7:3 3:1 1:0 0:2"/>
    </vehicle>
    <vehicle id="621" depart="621.00">
        <route edges="3:1"/>
    </vehicle>
    <vehicle id="624" depart="624.00">
        <route edges="7:3 3:1"/>
    </vehicle>
    <vehicle id="625" depart="625.00">
        <route edges="2:0 0:1"/>
    </vehicle>
    <vehicle id="626" depart="626.00">
        <route edges="0:1 1:3 3:7"/>
    </vehicle>
    <vehicle id="627" depart="627.00">
        <route edges="1:0"/>
    </vehicle>
    <vehicle id="628" depart="628.00">
        <route edges="1:3"/>
    </vehicle>
    <vehicle id="630" depart="630.00">
        <route edges="2:0 0:1 1:3 3:7"/>
    </vehicle>