<?xml version="1.0" encoding="UTF-8"?>

<!-- generated on Thu Feb 13 12:39:39 2014 by SUMO duarouter Version 0.18.0
<?xml version="1.0" encoding="UTF-8"?>

<configuration xmlns:xsi="http://www.w3.org/2001/XMLSchema-instance" xsi:noNamespaceSchemaLocation="http://sumo.sf.net/xsd/duarouterConfiguration.xsd">

    <input>
        <net-file value="simpleT.net.xml"/>
        <trip-files value="experimentos/simpleT.p0.7.7.trips.xml"/>
    </input>

    <output>
        <output-file value="experimentos/simpleT.p0.7.7.rou.xml"/>
    </output>

    <processing>
        <ignore-errors value="true"/>
    </processing>

    <random_number>
        <random value="true"/>
    </random_number>

</configuration>
-->

<routes xmlns:xsi="http://www.w3.org/2001/XMLSchema-instance" xsi:noNamespaceSchemaLocation="http://sumo.sf.net/xsd/routes_file.xsd">
    <vehicle id="2" depart="1.40">
        <route edges="2:0 0:1 1:3 3:7"/>
    </vehicle>
    <vehicle id="3" depart="2.10">
        <route edges="2:0 0:1 1:3 3:7"/>
    </vehicle>
    <vehicle id="6" depart="4.20">
        <route edges="5:1 1:3 3:7"/>
    </vehicle>
    <vehicle id="7" depart="4.90">
        <route edges="6:5 5:1 1:3 3:7"/>
    </vehicle>
    <vehicle id="8" depart="5.60">
        <route edges="2:0 0:1 1:3"/>
    </vehicle>
    <vehicle id="9" depart="6.30">
        <route edges="1:0"/>
    </vehicle>
    <vehicle id="13" depart="9.10">
        <route edges="7:3 3:1 1:5 5:6"/>
    </vehicle>
    <vehicle id="14" depart="9.80">
        <route edges="6:5 5:1 1:0 0:2"/>
    </vehicle>
    <vehicle id="15" depart="10.50">
        <route edges="3:1 1:0"/>
    </vehicle>
    <vehicle id="16" depart="11.20">
        <route edges="2:0 0:1"/>
    </vehicle>
    <vehicle id="18" depart="12.60">
        <route edges="2:0 0:1 1:3 3:7"/>
    </vehicle>
    <vehicle id="19" depart="13.30">
        <route edges="2:0 0:1 1:3"/>
    </vehicle>
    <vehicle id="20" depart="14.00">
        <route edges="2:0 0:1"/>
    </vehicle>
    <vehicle id="22" depart="15.40">
        <route edges="0:1"/>
    </vehicle>
    <vehicle id="30" depart="21.00">
        <route edges="0:1 1:3"/>
    </vehicle>
    <vehicle id="33" depart="23.10">
        <route edges="2:0 0:1 1:3"/>
    </vehicle>
    <vehicle id="34" depart="23.80">
        <route edges="0:1 1:3"/>
    </vehicle>
    <vehicle id="35" depart="24.50">
        <route edges="1:3 3:7"/>
    </vehicle>
    <vehicle id="37" depart="25.90">
        <route edges="0:1 1:5 5:6"/>
    </vehicle>
    <vehicle id="39" depart="27.30">
        <route edges="3:1"/>
    </vehicle>
    <vehicle id="40" depart="28.00">
        <route edges="7:3 3:1 1:0 0:2"/>
    </vehicle>
    <vehicle id="41" depart="28.70">
        <route edges="3:1"/>
    </vehicle>
    <vehicle id="44" depart="30.80">
        <route edges="7:3 3:1 1:0 0:2"/>
    </vehicle>
    <vehicle id="45" depart="31.50">
        <route edges="2:0 0:1 1:3"/>
    </vehicle>
    <vehicle id="48" depart="33.60">
        <route edges="7:3 3:1 1:0 0:2"/>
    </vehicle>
    <vehicle id="49" depart="34.30">
        <route edges="3:1 1:0 0:2"/>
    </vehicle>
    <vehicle id="50" depart="35.00">
        <route edges="6:5 5:1 1:0 0:2"/>
    </vehicle>
    <vehicle id="51" depart="35.70">
        <route edges="3:1 1:0 0:2"/>
    </vehicle>
    <vehicle id="53" depart="37.10">
        <route edges="2:0 0:1 1:5 5:6"/>
    </vehicle>
    <vehicle id="58" depart="40.60">
        <route edges="2:0 0:1"/>
    </vehicle>
    <vehicle id="61" depart="42.70">
        <route edges="2:0 0:1 1:3 3:7"/>
    </vehicle>
    <vehicle id="66" depart="46.20">
        <route edges="6:5 5:1 1:3 3:7"/>
    </vehicle>
    <vehicle id="67" depart="46.90">
        <route edges="2:0 0:1 1:5 5:6"/>
    </vehicle>
    <vehicle id="68" depart="47.60">
        <route edges="7:3 3:1 1:5"/>
    </vehicle>
    <vehicle id="69" depart="48.30">
        <route edges="7:3 3:1 1:0 0:2"/>
    </vehicle>
    <vehicle id="70" depart="49.00">
        <route edges="6:5 5:1 1:0 0:2"/>
    </vehicle>
    <vehicle id="73" depart="51.10">
        <route edges="1:0 0:2"/>
    </vehicle>
    <vehicle id="74" depart="51.80">
        <route edges="6:5 5:1 1:3 3:7"/>
    </vehicle>
    <vehicle id="76" depart="53.20">
        <route edges="6:5 5:1"/>
    </vehicle>
    <vehicle id="77" depart="53.90">
        <route edges="3:1 1:0 0:2"/>
    </vehicle>
    <vehicle id="82" depart="57.40">
        <route edges="7:3 3:1 1:0 0:2"/>
    </vehicle>
    <vehicle id="83" depart="58.10">
        <route edges="0:1 1:3 3:7"/>
    </vehicle>
    <vehicle id="84" depart="58.80">
        <route edges="1:0 0:2"/>
    </vehicle>
    <vehicle id="85" depart="59.50">
        <route edges="2:0 0:1 1:3 3:7"/>
    </vehicle>
    <vehicle id="86" depart="60.20">
        <route edges="7:3 3:1 1:0 0:2"/>
    </vehicle>
    <vehicle id="87" depart="60.90">
        <route edges="7:3 3:1 1:0 0:2"/>
    </vehicle>
    <vehicle id="88" depart="61.60">
        <route edges="7:3 3:1"/>
    </vehicle>
    <vehicle id="90" depart="63.00">
        <route edges="7:3 3:1 1:0 0:2"/>
    </vehicle>
    <vehicle id="91" depart="63.70">
        <route edges="0:1 1:3 3:7"/>
    </vehicle>
    <vehicle id="94" depart="65.80">
        <route edges="7:3 3:1 1:0 0:2"/>
    </vehicle>
    <vehicle id="95" depart="66.50">
        <route edges="2:0 0:1"/>
    </vehicle>
    <vehicle id="100" depart="70.00">
        <route edges="0:1"/>
    </vehicle>
    <vehicle id="105" depart="73.50">
        <route edges="7:3 3:1 1:5 5:6"/>
    </vehicle>
    <vehicle id="106" depart="74.20">
        <route edges="3:1"/>
    </vehicle>
    <vehicle id="109" depart="76.30">
        <route edges="1:0 0:2"/>
    </vehicle>
    <vehicle id="110" depart="77.00">
        <route edges="2:0 0:1 1:3"/>
    </vehicle>
    <vehicle id="111" depart="77.70">
        <route edges="2:0 0:1"/>
    </vehicle>
    <vehicle id="113" depart="79.10">
        <route edges="5:1 1:0 0:2"/>
    </vehicle>
    <vehicle id="114" depart="79.80">
        <route edges="0:1 1:3 3:7"/>
    </vehicle>
    <vehicle id="115" depart="80.50">
        <route edges="1:0 0:2"/>
    </vehicle>
    <vehicle id="116" depart="81.20">
        <route edges="6:5 5:1 1:3"/>
    </vehicle>
    <vehicle id="118" depart="82.60">
        <route edges="6:5 5:1 1:3 3:7"/>
    </vehicle>
    <vehicle id="120" depart="84.00">
        <route edges="2:0 0:1 1:3"/>
    </vehicle>
    <vehicle id="130" depart="91.00">
        <route edges="5:1"/>
    </vehicle>
    <vehicle id="132" depart="92.40">
        <route edges="2:0 0:1 1:3"/>
    </vehicle>
    <vehicle id="133" depart="93.10">
        <route edges="7:3 3:1"/>
    </vehicle>
    <vehicle id="136" depart="95.20">
        <route edges="0:1"/>
    </vehicle>
    <vehicle id="137" depart="95.90">
        <route edges="1:3 3:7"/>
    </vehicle>
    <vehicle id="139" depart="97.30">
        <route edges="5:1 1:3 3:7"/>
    </vehicle>
    <vehicle id="141" depart="98.70">
        <route edges="2:0 0:1 1:3 3:7"/>
    </vehicle>
    <vehicle id="143" depart="100.10">
        <route edges="3:1 1:0"/>
    </vehicle>
    <vehicle id="144" depart="100.80">
        <route edges="3:1"/>
    </vehicle>
    <vehicle id="145" depart="101.50">
        <route edges="6:5 5:1 1:3 3:7"/>
    </vehicle>
    <vehicle id="146" depart="102.20">
        <route edges="2:0 0:1 1:5"/>
    </vehicle>
    <vehicle id="147" depart="102.90">
        <route edges="2:0 0:1 1:3"/>
    </vehicle>
    <vehicle id="148" depart="103.60">
        <route edges="2:0 0:1 1:3"/>
    </vehicle>
    <vehicle id="149" depart="104.30">
        <route edges="1:0 0:2"/>
    </vehicle>
    <vehicle id="150" depart="105.00">
        <route edges="1:0"/>
    </vehicle>
    <vehicle id="151" depart="105.70">
        <route edges="7:3 3:1 1:5"/>
    </vehicle>
    <vehicle id="153" depart="107.10">
        <route edges="5:1 1:0 0:2"/>
    </vehicle>
    <vehicle id="156" depart="109.20">
        <route edges="7:3 3:1 1:0 0:2"/>
    </vehicle>
    <vehicle id="157" depart="109.90">
        <route edges="1:3 3:7"/>
    </vehicle>
    <vehicle id="160" depart="112.00">
        <route edges="7:3 3:1 1:5"/>
    </vehicle>
    <vehicle id="161" depart="112.70">
        <route edges="2:0 0:1 1:3 3:7"/>
    </vehicle>
    <vehicle id="165" depart="115.50">
        <route edges="3:1 1:0"/>
    </vehicle>
    <vehicle id="167" depart="116.90">
        <route edges="7:3 3:1 1:0"/>
    </vehicle>
    <vehicle id="168" depart="117.60">
        <route edges="0:1"/>
    </vehicle>
    <vehicle id="170" depart="119.00">
        <route edges="7:3 3:1 1:0 0:2"/>
    </vehicle>
    <vehicle id="172" depart="120.40">
        <route edges="0:1"/>
    </vehicle>
    <vehicle id="175" depart="122.50">
        <route edges="5:1 1:3 3:7"/>
    </vehicle>
    <vehicle id="177" depart="123.90">
        <route edges="0:1 1:3"/>
    </vehicle>
    <vehicle id="179" depart="125.30">
        <route edges="3:1 1:0"/>
    </vehicle>
    <vehicle id="184" depart="128.80">
        <route edges="2:0 0:1 1:3"/>
    </vehicle>
    <vehicle id="186" depart="130.20">
        <route edges="3:1 1:0 0:2"/>
    </vehicle>
    <vehicle id="187" depart="130.90">
        <route edges="1:0"/>
    </vehicle>
    <vehicle id="188" depart="131.60">
        <route edges="1:0 0:2"/>
    </vehicle>
    <vehicle id="189" depart="132.30">
        <route edges="1:0 0:2"/>
    </vehicle>
    <vehicle id="190" depart="133.00">
        <route edges="0:1 1:3 3:7"/>
    </vehicle>
    <vehicle id="192" depart="134.40">
        <route edges="2:0 0:1 1:3 3:7"/>
    </vehicle>
    <vehicle id="194" depart="135.80">
        <route edges="0:1 1:3 3:7"/>
    </vehicle>
    <vehicle id="195" depart="136.50">
        <route edges="0:1 1:5 5:6"/>
    </vehicle>
    <vehicle id="196" depart="137.20">
        <route edges="6:5 5:1 1:0 0:2"/>
    </vehicle>
    <vehicle id="202" depart="141.40">
        <route edges="7:3 3:1"/>
    </vehicle>
    <vehicle id="203" depart="142.10">
        <route edges="1:5 5:6"/>
    </vehicle>
    <vehicle id="205" depart="143.50">
        <route edges="2:0 0:1 1:5 5:6"/>
    </vehicle>
    <vehicle id="206" depart="144.20">
        <route edges="7:3 3:1 1:0 0:2"/>
    </vehicle>
    <vehicle id="207" depart="144.90">
        <route edges="5:1 1:0 0:2"/>
    </vehicle>
    <vehicle id="214" depart="149.80">
        <route edges="6:5 5:1 1:0 0:2"/>
    </vehicle>
    <vehicle id="215" depart="150.50">
        <route edges="2:0 0:1 1:3"/>
    </vehicle>
    <vehicle id="217" depart="151.90">
        <route edges="6:5 5:1 1:0 0:2"/>
    </vehicle>
    <vehicle id="218" depart="152.60">
        <route edges="2:0 0:1 1:5 5:6"/>
    </vehicle>
    <vehicle id="219" depart="153.30">
        <route edges="1:0 0:2"/>
    </vehicle>
    <vehicle id="220" depart="154.00">
        <route edges="0:1"/>
    </vehicle>
    <vehicle id="222" depart="155.40">
        <route edges="2:0 0:1 1:3 3:7"/>
    </vehicle>
    <vehicle id="223" depart="156.10">
        <route edges="6:5 5:1 1:0 0:2"/>
    </vehicle>
    <vehicle id="225" depart="157.50">
        <route edges="5:1 1:3 3:7"/>
    </vehicle>
    <vehicle id="227" depart="158.90">
        <route edges="7:3 3:1 1:0 0:2"/>
    </vehicle>
    <vehicle id="228" depart="159.60">
        <route edges="7:3 3:1 1:0 0:2"/>
    </vehicle>
    <vehicle id="229" depart="160.30">
        <route edges="1:3 3:7"/>
    </vehicle>
    <vehicle id="232" depart="162.40">
        <route edges="0:1"/>
    </vehicle>
    <vehicle id="237" depart="165.90">
        <route edges="7:3 3:1"/>
    </vehicle>
    <vehicle id="238" depart="166.60">
        <route edges="3:1 1:0 0:2"/>
    </vehicle>
    <vehicle id="242" depart="169.40">
        <route edges="7:3 3:1"/>
    </vehicle>
    <vehicle id="250" depart="175.00">
        <route edges="2:0 0:1 1:3 3:7"/>
    </vehicle>
    <vehicle id="251" depart="175.70">
        <route edges="3:1 1:0"/>
    </vehicle>
    <vehicle id="252" depart="176.40">
        <route edges="2:0 0:1 1:3"/>
    </vehicle>
    <vehicle id="253" depart="177.10">
        <route edges="7:3 3:1 1:5 5:6"/>
    </vehicle>
    <vehicle id="254" depart="177.80">
        <route edges="1:0 0:2"/>
    </vehicle>
    <vehicle id="255" depart="178.50">
        <route edges="6:5 5:1 1:3 3:7"/>
    </vehicle>
    <vehicle id="258" depart="180.60">
        <route edges="1:3"/>
    </vehicle>
    <vehicle id="261" depart="182.70">
        <route edges="6:5 5:1 1:0 0:2"/>
    </vehicle>
    <vehicle id="264" depart="184.80">
        <route edges="7:3 3:1 1:0"/>
    </vehicle>
    <vehicle id="267" depart="186.90">
        <route edges="6:5 5:1 1:0 0:2"/>
    </vehicle>
    <vehicle id="272" depart="190.40">
        <route edges="5:1 1:0 0:2"/>
    </vehicle>
    <vehicle id="273" depart="191.10">
        <route edges="2:0 0:1 1:3"/>
    </vehicle>
    <vehicle id="275" depart="192.50">
        <route edges="5:1 1:3 3:7"/>
    </vehicle>
    <vehicle id="276" depart="193.20">
        <route edges="2:0 0:1"/>
    </vehicle>
    <vehicle id="283" depart="198.10">
        <route edges="5:1 1:3 3:7"/>
    </vehicle>
    <vehicle id="284" depart="198.80">
        <route edges="3:1 1:5 5:6"/>
    </vehicle>
    <vehicle id="285" depart="199.50">
        <route edges="0:1 1:3"/>
    </vehicle>
    <vehicle id="291" depart="203.70">
        <route edges="5:1 1:3 3:7"/>
    </vehicle>
    <vehicle id="292" depart="204.40">
        <route edges="0:1"/>
    </vehicle>
    <vehicle id="293" depart="205.10">
        <route edges="2:0 0:1 1:3"/>
    </vehicle>
    <vehicle id="296" depart="207.20">
        <route edges="1:0 0:2"/>
    </vehicle>
    <vehicle id="298" depart="208.60">
        <route edges="2:0 0:1 1:5 5:6"/>
    </vehicle>
    <vehicle id="300" depart="210.00">
        <route edges="0:1 1:5 5:6"/>
    </vehicle>
    <vehicle id="302" depart="211.40">
        <route edges="5:1 1:0 0:2"/>
    </vehicle>
    <vehicle id="308" depart="215.60">
        <route edges="2:0 0:1"/>
    </vehicle>
    <vehicle id="309" depart="216.30">
        <route edges="0:1"/>
    </vehicle>
    <vehicle id="311" depart="217.70">
        <route edges="6:5 5:1 1:3 3:7"/>
    </vehicle>
    <vehicle id="314" depart="219.80">
        <route edges="6:5 5:1 1:3 3:7"/>
    </vehicle>
    <vehicle id="315" depart="220.50">
        <route edges="2:0 0:1"/>
    </vehicle>
    <vehicle id="317" depart="221.90">
        <route edges="0:1 1:5 5:6"/>
    </vehicle>
    <vehicle id="319" depart="223.30">
        <route edges="6:5 5:1 1:0 0:2"/>
    </vehicle>
    <vehicle id="320" depart="224.00">
        <route edges="1:0"/>
    </vehicle>
    <vehicle id="321" depart="224.70">
        <route edges="7:3 3:1 1:0"/>
    </vehicle>
    <vehicle id="322" depart="225.40">
        <route edges="0:1 1:5 5:6"/>
    </vehicle>
    <vehicle id="324" depart="226.80">
        <route edges="5:1 1:0 0:2"/>
    </vehicle>
    <vehicle id="325" depart="227.50">
        <route edges="0:1 1:3 3:7"/>
    </vehicle>
    <vehicle id="328" depart="229.60">
        <route edges="7:3 3:1 1:0"/>
    </vehicle>
    <vehicle id="329" depart="230.30">
        <route edges="3:1 1:5"/>
    </vehicle>
    <vehicle id="331" depart="231.70">
        <route edges="6:5 5:1"/>
    </vehicle>
    <vehicle id="332" depart="232.40">
        <route edges="6:5 5:1 1:3 3:7"/>
    </vehicle>
    <vehicle id="333" depart="233.10">
        <route edges="7:3 3:1 1:0 0:2"/>
    </vehicle>
    <vehicle id="336" depart="235.20">
        <route edges="3:1 1:0"/>
    </vehicle>
    <vehicle id="339" depart="237.30">
        <route edges="1:0 0:2"/>
    </vehicle>
    <vehicle id="341" depart="238.70">
        <route edges="3:1 1:0 0:2"/>
    </vehicle>
    <vehicle id="342" depart="239.40">
        <route edges="3:1 1:0 0:2"/>
    </vehicle>
    <vehicle id="344" depart="240.80">
        <route edges="6:5 5:1 1:0"/>
    </vehicle>
    <vehicle id="351" depart="245.70">
        <route edges="1:3 3:7"/>
    </vehicle>
    <vehicle id="352" depart="246.40">
        <route edges="2:0 0:1"/>
    </vehicle>
    <vehicle id="353" depart="247.10">
        <route edges="1:0"/>
    </vehicle>
    <vehicle id="358" depart="250.60">
        <route edges="6:5 5:1 1:3 3:7"/>
    </vehicle>
    <vehicle id="360" depart="252.00">
        <route edges="1:0 0:2"/>
    </vehicle>
    <vehicle id="362" depart="253.40">
        <route edges="7:3 3:1 1:0 0:2"/>
    </vehicle>
    <vehicle id="363" depart="254.10">
        <route edges="2:0 0:1 1:5 5:6"/>
    </vehicle>
    <vehicle id="374" depart="261.80">
        <route edges="2:0 0:1 1:5"/>
    </vehicle>
    <vehicle id="376" depart="263.20">
        <route edges="3:1 1:5 5:6"/>
    </vehicle>
    <vehicle id="381" depart="266.70">
        <route edges="7:3 3:1 1:5 5:6"/>
    </vehicle>
    <vehicle id="382" depart="267.40">
        <route edges="2:0 0:1 1:3"/>
    </vehicle>
    <vehicle id="384" depart="268.80">
        <route edges="2:0 0:1 1:3 3:7"/>
    </vehicle>
    <vehicle id="386" depart="270.20">
        <route edges="3:1"/>
    </vehicle>
    <vehicle id="387" depart="270.90">
        <route edges="6:5 5:1 1:0"/>
    </vehicle>
    <vehicle id="388" depart="271.60">
        <route edges="0:1 1:3"/>
    </vehicle>
    <vehicle id="390" depart="273.00">
        <route edges="7:3 3:1 1:0 0:2"/>
    </vehicle>
    <vehicle id="392" depart="274.40">
        <route edges="7:3 3:1 1:5"/>
    </vehicle>
    <vehicle id="393" depart="275.10">
        <route edges="7:3 3:1 1:5"/>
    </vehicle>
    <vehicle id="394" depart="275.80">
        <route edges="2:0 0:1"/>
    </vehicle>
    <vehicle id="397" depart="277.90">
        <route edges="1:3"/>
    </vehicle>
    <vehicle id="405" depart="283.50">
        <route edges="2:0 0:1 1:5"/>
    </vehicle>
    <vehicle id="406" depart="284.20">
        <route edges="0:1"/>
    </vehicle>
    <vehicle id="409" depart="286.30">
        <route edges="1:3 3:7"/>
    </vehicle>
    <vehicle id="412" depart="288.40">
        <route edges="2:0 0:1 1:3 3:7"/>
    </vehicle>
    <vehicle id="413" depart="289.10">
        <route edges="1:3 3:7"/>
    </vehicle>
    <vehicle id="417" depart="291.90">
        <route edges="2:0 0:1"/>
    </vehicle>
    <vehicle id="418" depart="292.60">
        <route edges="2:0 0:1 1:3"/>
    </vehicle>
    <vehicle id="419" depart="293.30">
        <route edges="2:0 0:1 1:5 5:6"/>
    </vehicle>
    <vehicle id="420" depart="294.00">
        <route edges="1:0 0:2"/>
    </vehicle>
    <vehicle id="421" depart="294.70">
        <route edges="2:0 0:1 1:5 5:6"/>
    </vehicle>
    <vehicle id="423" depart="296.10">
        <route edges="2:0 0:1"/>
    </vehicle>
    <vehicle id="424" depart="296.80">
        <route edges="0:1 1:3"/>
    </vehicle>
    <vehicle id="425" depart="297.50">
        <route edges="3:1"/>
    </vehicle>
    <vehicle id="429" depart="300.30">
        <route edges="6:5 5:1 1:0"/>
    </vehicle>
    <vehicle id="430" depart="301.00">
        <route edges="7:3 3:1"/>
    </vehicle>
    <vehicle id="432" depart="302.40">
        <route edges="0:1 1:3 3:7"/>
    </vehicle>
    <vehicle id="436" depart="305.20">
        <route edges="2:0 0:1"/>
    </vehicle>
    <vehicle id="439" depart="307.30">
        <route edges="6:5 5:1 1:3 3:7"/>
    </vehicle>
    <vehicle id="441" depart="308.70">
        <route edges="6:5 5:1 1:3 3:7"/>
    </vehicle>
    <vehicle id="442" depart="309.40">
        <route edges="2:0 0:1 1:3 3:7"/>
    </vehicle>
    <vehicle id="443" depart="310.10">
        <route edges="2:0 0:1"/>
    </vehicle>
    <vehicle id="444" depart="310.80">
        <route edges="2:0 0:1 1:3 3:7"/>
    </vehicle>
    <vehicle id="445" depart="311.50">
        <route edges="7:3 3:1 1:5"/>
    </vehicle>
    <vehicle id="448" depart="313.60">
        <route edges="7:3 3:1"/>
    </vehicle>
    <vehicle id="451" depart="315.70">
        <route edges="0:1 1:5 5:6"/>
    </vehicle>
    <vehicle id="456" depart="319.20">
        <route edges="7:3 3:1 1:0 0:2"/>
    </vehicle>
    <vehicle id="457" depart="319.90">
        <route edges="7:3 3:1 1:0"/>
    </vehicle>
    <vehicle id="459" depart="321.30">
        <route edges="2:0 0:1 1:3"/>
    </vehicle>
    <vehicle id="464" depart="324.80">
        <route edges="0:1 1:3 3:7"/>
    </vehicle>
    <vehicle id="465" depart="325.50">
        <route edges="1:3"/>
    </vehicle>
    <vehicle id="466" depart="326.20">
        <route edges="2:0 0:1 1:3"/>
    </vehicle>
    <vehicle id="468" depart="327.60">
        <route edges="7:3 3:1 1:0 0:2"/>
    </vehicle>
    <vehicle id="469" depart="328.30">
        <route edges="6:5 5:1 1:0"/>
    </vehicle>
    <vehicle id="470" depart="329.00">
        <route edges="7:3 3:1 1:5"/>
    </vehicle>
    <vehicle id="472" depart="330.40">
        <route edges="6:5 5:1 1:3 3:7"/>
    </vehicle>
    <vehicle id="473" depart="331.10">
        <route edges="6:5 5:1 1:3 3:7"/>
    </vehicle>
    <vehicle id="475" depart="332.50">
        <route edges="3:1 1:0 0:2"/>
    </vehicle>
    <vehicle id="476" depart="333.20">
        <route edges="3:1 1:5 5:6"/>
    </vehicle>
    <vehicle id="477" depart="333.90">
        <route edges="5:1 1:0 0:2"/>
    </vehicle>
    <vehicle id="479" depart="335.30">
        <route edges="2:0 0:1 1:5"/>
    </vehicle>
    <vehicle id="480" depart="336.00">
        <route edges="7:3 3:1 1:5 5:6"/>
    </vehicle>
    <vehicle id="481" depart="336.70">
        <route edges="6:5 5:1 1:3 3:7"/>
    </vehicle>
    <vehicle id="485" depart="339.50">
        <route edges="7:3 3:1 1:0 0:2"/>
    </vehicle>
    <vehicle id="486" depart="340.20">
        <route edges="7:3 3:1 1:0 0:2"/>
    </vehicle>
    <vehicle id="492" depart="344.40">
        <route edges="2:0 0:1 1:5"/>
    </vehicle>
    <vehicle id="493" depart="345.10">
        <route edges="0:1 1:3 3:7"/>
    </vehicle>
    <vehicle id="494" depart="345.80">
        <route edges="2:0 0:1 1:5"/>
    </vehicle>
    <vehicle id="495" depart="346.50">
        <route edges="0:1 1:5 5:6"/>
    </vehicle>
    <vehicle id="496" depart="347.20">
        <route edges="2:0 0:1 1:5 5:6"/>
    </vehicle>
    <vehicle id="498" depart="348.60">
        <route edges="0:1 1:5"/>
    </vehicle>
    <vehicle id="499" depart="349.30">
        <route edges="7:3 3:1"/>
    </vehicle>
    <vehicle id="501" depart="350.70">
        <route edges="2:0 0:1 1:3 3:7"/>
    </vehicle>
    <vehicle id="503" depart="352.10">
        <route edges="6:5 5:1 1:0 0:2"/>
    </vehicle>
    <vehicle id="507" depart="354.90">
        <route edges="2:0 0:1 1:5 5:6"/>
    </vehicle>
    <vehicle id="509" depart="356.30">
        <route edges="7:3 3:1 1:0"/>
    </vehicle>
    <vehicle id="511" depart="357.70">
        <route edges="3:1"/>
    </vehicle>
    <vehicle id="512" depart="358.40">
        <route edges="2:0 0:1"/>
    </vehicle>
    <vehicle id="515" depart="360.50">
        <route edges="7:3 3:1"/>
    </vehicle>
    <vehicle id="517" depart="361.90">
        <route edges="3:1"/>
    </vehicle>
    <vehicle id="520" depart="364.00">
        <route edges="6:5 5:1 1:3 3:7"/>
    </vehicle>
    <vehicle id="521" depart="364.70">
        <route edges="7:3 3:1"/>
    </vehicle>
    <vehicle id="525" depart="367.50">
        <route edges="7:3 3:1 1:0"/>
    </vehicle>
    <vehicle id="528" depart="369.60">
        <route edges="1:3"/>
    </vehicle>
    <vehicle id="531" depart="371.70">
        <route edges="3:1"/>
    </vehicle>
    <vehicle id="532" depart="372.40">
        <route edges="1:0 0:2"/>
    </vehicle>
    <vehicle id="533" depart="373.10">
        <route edges="1:3 3:7"/>
    </vehicle>
    <vehicle id="536" depart="375.20">
        <route edges="2:0 0:1"/>
    </vehicle>
    <vehicle id="538" depart="376.60">
        <route edges="6:5 5:1 1:3 3:7"/>
    </vehicle>
    <vehicle id="539" depart="377.30">
        <route edges="6:5 5:1 1:3 3:7"/>
    </vehicle>
    <vehicle id="540" depart="378.00">
        <route edges="7:3 3:1 1:0 0:2"/>
    </vehicle>
    <vehicle id="542" depart="379.40">
        <route edges="6:5 5:1 1:0 0:2"/>
    </vehicle>
    <vehicle id="544" depart="380.80">
        <route edges="0:1"/>
    </vehicle>
    <vehicle id="545" depart="381.50">
        <route edges="5:1 1:0 0:2"/>
    </vehicle>
    <vehicle id="549" depart="384.30">
        <route edges="2:0 0:1 1:3"/>
    </vehicle>
    <vehicle id="550" depart="385.00">
        <route edges="2:0 0:1 1:5 5:6"/>
    </vehicle>
    <vehicle id="551" depart="385.70">
        <route edges="2:0 0:1"/>
    </vehicle>
    <vehicle id="552" depart="386.40">
        <route edges="7:3 3:1 1:0 0:2"/>
    </vehicle>
    <vehicle id="553" depart="387.10">
        <route edges="2:0 0:1 1:3 3:7"/>
    </vehicle>
    <vehicle id="555" depart="388.50">
        <route edges="1:5"/>
    </vehicle>
    <vehicle id="558" depart="390.60">
        <route edges="0:1 1:3"/>
    </vehicle>
    <vehicle id="559" depart="391.30">
        <route edges="2:0 0:1 1:5 5:6"/>
    </vehicle>
    <vehicle id="560" depart="392.00">
        <route edges="2:0 0:1 1:3 3:7"/>
    </vehicle>
    <vehicle id="562" depart="393.40">
        <route edges="0:1 1:3"/>
    </vehicle>
    <vehicle id="567" depart="396.90">
        <route edges="1:3 3:7"/>
    </vehicle>
    <vehicle id="569" depart="398.30">
        <route edges="7:3 3:1 1:0 0:2"/>
    </vehicle>
    <vehicle id="573" depart="401.10">
        <route edges="2:0 0:1 1:3 3:7"/>
    </vehicle>
    <vehicle id="574" depart="401.80">
        <route edges="0:1 1:3 3:7"/>
    </vehicle>
    <vehicle id="575" depart="402.50">
        <route edges="2:0 0:1"/>
    </vehicle>
    <vehicle id="578" depart="404.60">
        <route edges="7:3 3:1 1:5 5:6"/>
    </vehicle>
    <vehicle id="579" depart="405.30">
        <route edges="7:3 3:1 1:0 0:2"/>
    </vehicle>
    <vehicle id="580" depart="406.00">
        <route edges="2:0 0:1 1:5 5:6"/>
    </vehicle>
    <vehicle id="584" depart="408.80">
        <route edges="3:1 1:0"/>
    </vehicle>
    <vehicle id="587" depart="410.90">
        <route edges="5:1 1:3 3:7"/>
    </vehicle>
    <vehicle id="588" depart="411.60">
        <route edges="2:0 0:1 1:3"/>
    </vehicle>
    <vehicle id="589" depart="412.30">
        <route edges="3:1 1:0 0:2"/>
    </vehicle>
    <vehicle id="595" depart="416.50">
        <route edges="0:1 1:5 5:6"/>
    </vehicle>
    <vehicle id="596" depart="417.20">
        <route edges="2:0 0:1"/>
    </vehicle>
    <vehicle id="598" depart="418.60">
        <route edges="5:1 1:0 0:2"/>
    </vehicle>
    <vehicle id="600" depart="420.00">
        <route edges="7:3 3:1 1:0"/>
    </vehicle>
    <vehicle id="601" depart="420.70">
        <route edges="7:3 3:1"/>
    </vehicle>
    <vehicle id="605" depart="423.50">
        <route edges="2:0 0:1 1:3 3:7"/>
    </vehicle>
    <vehicle id="606" depart="424.20">
        <route edges="1:0"/>
    </vehicle>
    <vehicle id="610" depart="427.00">
        <route edges="7:3 3:1 1:5 5:6"/>
    </vehicle>
    <vehicle id="611" depart="427.70">
        <route edges="6:5 5:1 1:3 3:7"/>
    </vehicle>
    <vehicle id="612" depart="428.40">
        <route edges="0:1 1:5"/>
    </vehicle>
    <vehicle id="614" depart="429.80">
        <route edges="2:0 0:1 1:5"/>
    </vehicle>
    <vehicle id="622" depart="435.40">
        <route edges="0:1 1:3 3:7"/>
    </vehicle>
    <vehicle id="623" depart="436.10">
        <route edges="2:0 0:1 1:3 3:7"/>
    </vehicle>
    <vehicle id="624" depart="436.80">
        <route edges="2:0 0:1 1:3"/>
    </vehicle>
    <vehicle id="625" depart="437.50">
        <route edges="3:1"/>
    </vehicle>
    <vehicle id="626" depart="438.20">
        <route edges="2:0 0:1"/>
    </vehicle>
    <vehicle id="627" depart="438.90">
        <route edges="1:5 5:6"/>
    </vehicle>
    <vehicle id="630" depart="441.00">
        <route edges="5:1 1:3"/>
    </vehicle>
    <vehicle id="631" depart="441.70">
        <route edges="3:1 1:0"/>
    </vehicle>
    <vehicle id="634" depart="443.80">
        <route edges="7:3 3:1 1:0"/>
    </vehicle>
    <vehicle id="635" depart="444.50">
        <route edges="2:0 0:1 1:5"/>
    </vehicle>
    <vehicle id="637" depart="445.90">
        <route edges="0:1"/>
    </vehicle>
    <vehicle id="638" depart="446.60">
        <route edges="7:3 3:1 1:5"/>
    </vehicle>
    <vehicle id="645" depart="451.50">
        <route edges="5:1 1:3 3:7"/>
    </vehicle>
    <vehicle id="646" depart="452.20">
        <route edges="7:3 3:1"/>
    </vehicle>
    <vehicle id="649" depart="454.30">
        <route edges="7:3 3:1"/>
    </vehicle>
    <vehicle id="650" depart="455.00">
        <route edges="7:3 3:1 1:5 5:6"/>
    </vehicle>
    <vehicle id="651" depart="455.70">
        <route edges="2:0 0:1 1:5 5:6"/>
    </vehicle>
    <vehicle id="652" depart="456.40">
        <route edges="7:3 3:1 1:0 0:2"/>
    </vehicle>
    <vehicle id="653" depart="457.10">
        <route edges="7:3 3:1"/>
    </vehicle>
    <vehicle id="657" depart="459.90">
        <route edges="3:1 1:5 5:6"/>
    </vehicle>
    <vehicle id="658" depart="460.60">
        <route edges="2:0 0:1 1:3"/>
    </vehicle>
    <vehicle id="660" depart="462.00">
        <route edges="0:1 1:3"/>
    </vehicle>
    <vehicle id="663" depart="464.10">
        <route edges="0:1 1:3"/>
    </vehicle>
    <vehicle id="667" depart="466.90">
        <route edges="7:3 3:1"/>
    </vehicle>
    <vehicle id="668" depart="467.60">
        <route edges="2:0 0:1"/>
    </vehicle>
    <vehicle id="670" depart="469.00">
        <route edges="5:1 1:0 0:2"/>
    </vehicle>
    <vehicle id="673" depart="471.10">
        <route edges="3:1 1:0"/>
    </vehicle>
    <vehicle id="676" depart="473.20">
        <route edges="0:1 1:3"/>
    </vehicle>
    <vehicle id="677" depart="473.90">
        <route edges="7:3 3:1"/>
    </vehicle>