<?xml version="1.0" encoding="UTF-8"?>

<!-- generated on Thu Feb 13 12:37:54 2014 by SUMO duarouter Version 0.18.0
<?xml version="1.0" encoding="UTF-8"?>

<configuration xmlns:xsi="http://www.w3.org/2001/XMLSchema-instance" xsi:noNamespaceSchemaLocation="http://sumo.sf.net/xsd/duarouterConfiguration.xsd">

    <input>
        <net-file value="simpleT.net.xml"/>
        <trip-files value="experimentos/simpleT.p0.1.5.trips.xml"/>
    </input>

    <output>
        <output-file value="experimentos/simpleT.p0.1.5.rou.xml"/>
    </output>

    <processing>
        <ignore-errors value="true"/>
    </processing>

    <random_number>
        <random value="true"/>
    </random_number>

</configuration>
-->

<routes xmlns:xsi="http://www.w3.org/2001/XMLSchema-instance" xsi:noNamespaceSchemaLocation="http://sumo.sf.net/xsd/routes_file.xsd">
    <vehicle id="1" depart="0.10">
        <route edges="2:0 0:1"/>
    </vehicle>
    <vehicle id="4" depart="0.40">
        <route edges="2:0 0:1 1:3 3:7"/>
    </vehicle>
    <vehicle id="5" depart="0.50">
        <route edges="5:1 1:3 3:7"/>
    </vehicle>
    <vehicle id="11" depart="1.10">
        <route edges="7:3 3:1 1:5 5:6"/>
    </vehicle>
    <vehicle id="12" depart="1.20">
        <route edges="3:1"/>
    </vehicle>
    <vehicle id="15" depart="1.50">
        <route edges="0:1 1:3 3:7"/>
    </vehicle>
    <vehicle id="23" depart="2.30">
        <route edges="6:5 5:1 1:3"/>
    </vehicle>
    <vehicle id="24" depart="2.40">
        <route edges="7:3 3:1"/>
    </vehicle>
    <vehicle id="28" depart="2.80">
        <route edges="1:3 3:7"/>
    </vehicle>
    <vehicle id="31" depart="3.10">
        <route edges="7:3 3:1"/>
    </vehicle>
    <vehicle id="36" depart="3.60">
        <route edges="1:3"/>
    </vehicle>
    <vehicle id="39" depart="3.90">
        <route edges="5:1 1:0 0:2"/>
    </vehicle>
    <vehicle id="40" depart="4.00">
        <route edges="7:3 3:1 1:0"/>
    </vehicle>
    <vehicle id="42" depart="4.20">
        <route edges="2:0 0:1 1:3 3:7"/>
    </vehicle>
    <vehicle id="44" depart="4.40">
        <route edges="7:3 3:1 1:0 0:2"/>
    </vehicle>
    <vehicle id="45" depart="4.50">
        <route edges="5:1 1:3 3:7"/>
    </vehicle>
    <vehicle id="46" depart="4.60">
        <route edges="7:3 3:1 1:0 0:2"/>
    </vehicle>
    <vehicle id="47" depart="4.70">
        <route edges="2:0 0:1 1:5 5:6"/>
    </vehicle>
    <vehicle id="49" depart="4.90">
        <route edges="1:0 0:2"/>
    </vehicle>
    <vehicle id="51" depart="5.10">
        <route edges="7:3 3:1 1:5 5:6"/>
    </vehicle>
    <vehicle id="55" depart="5.50">
        <route edges="7:3 3:1 1:0"/>
    </vehicle>
    <vehicle id="57" depart="5.70">
        <route edges="6:5 5:1"/>
    </vehicle>
    <vehicle id="58" depart="5.80">
        <route edges="3:1 1:5 5:6"/>
    </vehicle>
    <vehicle id="59" depart="5.90">
        <route edges="2:0 0:1 1:5 5:6"/>
    </vehicle>
    <vehicle id="60" depart="6.00">
        <route edges="2:0 0:1 1:3 3:7"/>
    </vehicle>
    <vehicle id="61" depart="6.10">
        <route edges="7:3 3:1 1:0 0:2"/>
    </vehicle>
    <vehicle id="63" depart="6.30">
        <route edges="6:5 5:1 1:3 3:7"/>
    </vehicle>
    <vehicle id="64" depart="6.40">
        <route edges="2:0 0:1"/>
    </vehicle>
    <vehicle id="65" depart="6.50">
        <route edges="5:1 1:0 0:2"/>
    </vehicle>
    <vehicle id="68" depart="6.80">
        <route edges="6:5 5:1 1:3 3:7"/>
    </vehicle>
    <vehicle id="70" depart="7.00">
        <route edges="2:0 0:1 1:3 3:7"/>
    </vehicle>
    <vehicle id="73" depart="7.30">
        <route edges="5:1 1:3 3:7"/>
    </vehicle>
    <vehicle id="74" depart="7.40">
        <route edges="7:3 3:1 1:0 0:2"/>
    </vehicle>
    <vehicle id="77" depart="7.70">
        <route edges="3:1 1:0 0:2"/>
    </vehicle>
    <vehicle id="78" depart="7.80">
        <route edges="1:3 3:7"/>
    </vehicle>
    <vehicle id="79" depart="7.90">
        <route edges="6:5 5:1"/>
    </vehicle>
    <vehicle id="83" depart="8.30">
        <route edges="2:0 0:1 1:3 3:7"/>
    </vehicle>
    <vehicle id="85" depart="8.50">
        <route edges="1:0"/>
    </vehicle>
    <vehicle id="89" depart="8.90">
        <route edges="2:0 0:1 1:5 5:6"/>
    </vehicle>
    <vehicle id="93" depart="9.30">
        <route edges="0:1 1:5"/>
    </vehicle>
    <vehicle id="98" depart="9.80">
        <route edges="6:5 5:1 1:0 0:2"/>
    </vehicle>
    <vehicle id="100" depart="10.00">
        <route edges="2:0 0:1 1:3 3:7"/>
    </vehicle>
    <vehicle id="103" depart="10.30">
        <route edges="7:3 3:1 1:0"/>
    </vehicle>
    <vehicle id="104" depart="10.40">
        <route edges="3:1 1:0 0:2"/>
    </vehicle>
    <vehicle id="105" depart="10.50">
        <route edges="3:1"/>
    </vehicle>
    <vehicle id="106" depart="10.60">
        <route edges="5:1 1:0"/>
    </vehicle>
    <vehicle id="108" depart="10.80">
        <route edges="7:3 3:1 1:0"/>
    </vehicle>
    <vehicle id="114" depart="11.40">
        <route edges="1:3"/>
    </vehicle>
    <vehicle id="116" depart="11.60">
        <route edges="7:3 3:1 1:0"/>
    </vehicle>
    <vehicle id="117" depart="11.70">
        <route edges="0:1 1:3 3:7"/>
    </vehicle>
    <vehicle id="118" depart="11.80">
        <route edges="7:3 3:1"/>
    </vehicle>
    <vehicle id="119" depart="11.90">
        <route edges="3:1"/>
    </vehicle>
    <vehicle id="120" depart="12.00">
        <route edges="2:0 0:1 1:5 5:6"/>
    </vehicle>
    <vehicle id="121" depart="12.10">
        <route edges="3:1 1:0"/>
    </vehicle>
    <vehicle id="123" depart="12.30">
        <route edges="7:3 3:1"/>
    </vehicle>
    <vehicle id="124" depart="12.40">
        <route edges="1:0 0:2"/>
    </vehicle>
    <vehicle id="125" depart="12.50">
        <route edges="0:1 1:5 5:6"/>
    </vehicle>
    <vehicle id="126" depart="12.60">
        <route edges="7:3 3:1"/>
    </vehicle>
    <vehicle id="128" depart="12.80">
        <route edges="3:1 1:0 0:2"/>
    </vehicle>
    <vehicle id="130" depart="13.00">
        <route edges="2:0 0:1 1:5 5:6"/>
    </vehicle>
    <vehicle id="131" depart="13.10">
        <route edges="7:3 3:1 1:0 0:2"/>
    </vehicle>
    <vehicle id="133" depart="13.30">
        <route edges="7:3 3:1"/>
    </vehicle>
    <vehicle id="136" depart="13.60">
        <route edges="6:5 5:1 1:0 0:2"/>
    </vehicle>
    <vehicle id="138" depart="13.80">
        <route edges="0:1"/>
    </vehicle>
    <vehicle id="139" depart="13.90">
        <route edges="2:0 0:1 1:3"/>
    </vehicle>
    <vehicle id="140" depart="14.00">
        <route edges="5:1 1:0"/>
    </vehicle>
    <vehicle id="149" depart="14.90">
        <route edges="3:1 1:5 5:6"/>
    </vehicle>
    <vehicle id="150" depart="15.00">
        <route edges="7:3 3:1 1:0 0:2"/>
    </vehicle>
    <vehicle id="151" depart="15.10">
        <route edges="0:1 1:5"/>
    </vehicle>
    <vehicle id="153" depart="15.30">
        <route edges="5:1 1:0"/>
    </vehicle>
    <vehicle id="158" depart="15.80">
        <route edges="2:0 0:1 1:5"/>
    </vehicle>
    <vehicle id="160" depart="16.00">
        <route edges="7:3 3:1 1:5 5:6"/>
    </vehicle>
    <vehicle id="161" depart="16.10">
        <route edges="6:5 5:1 1:3 3:7"/>
    </vehicle>
    <vehicle id="162" depart="16.20">
        <route edges="0:1"/>
    </vehicle>
    <vehicle id="163" depart="16.30">
        <route edges="1:3"/>
    </vehicle>
    <vehicle id="166" depart="16.60">
        <route edges="2:0 0:1 1:3 3:7"/>
    </vehicle>
    <vehicle id="167" depart="16.70">
        <route edges="7:3 3:1 1:0"/>
    </vehicle>
    <vehicle id="168" depart="16.80">
        <route edges="0:1 1:5"/>
    </vehicle>
    <vehicle id="170" depart="17.00">
        <route edges="3:1 1:0 0:2"/>
    </vehicle>
    <vehicle id="176" depart="17.60">
        <route edges="2:0 0:1 1:3 3:7"/>
    </vehicle>
    <vehicle id="177" depart="17.70">
        <route edges="7:3 3:1 1:0 0:2"/>
    </vehicle>
    <vehicle id="180" depart="18.00">
        <route edges="2:0 0:1 1:3"/>
    </vehicle>
    <vehicle id="181" depart="18.10">
        <route edges="6:5 5:1 1:3 3:7"/>
    </vehicle>
    <vehicle id="182" depart="18.20">
        <route edges="7:3 3:1"/>
    </vehicle>
    <vehicle id="184" depart="18.40">
        <route edges="1:3 3:7"/>
    </vehicle>
    <vehicle id="187" depart="18.70">
        <route edges="3:1 1:5"/>
    </vehicle>
    <vehicle id="189" depart="18.90">
        <route edges="5:1 1:3 3:7"/>
    </vehicle>
    <vehicle id="190" depart="19.00">
        <route edges="2:0 0:1 1:3 3:7"/>
    </vehicle>
    <vehicle id="194" depart="19.40">
        <route edges="7:3 3:1 1:0 0:2"/>
    </vehicle>
    <vehicle id="195" depart="19.50">
        <route edges="7:3 3:1"/>
    </vehicle>
    <vehicle id="197" depart="19.70">
        <route edges="3:1 1:5 5:6"/>
    </vehicle>
    <vehicle id="199" depart="19.90">
        <route edges="2:0 0:1"/>
    </vehicle>
    <vehicle id="201" depart="20.10">
        <route edges="7:3 3:1 1:0 0:2"/>
    </vehicle>
    <vehicle id="205" depart="20.50">
        <route edges="7:3 3:1 1:5"/>
    </vehicle>
    <vehicle id="209" depart="20.90">
        <route edges="1:3 3:7"/>
    </vehicle>
    <vehicle id="211" depart="21.10">
        <route edges="3:1 1:0"/>
    </vehicle>
    <vehicle id="213" depart="21.30">
        <route edges="0:1"/>
    </vehicle>
    <vehicle id="222" depart="22.20">
        <route edges="2:0 0:1 1:3"/>
    </vehicle>
    <vehicle id="226" depart="22.60">
        <route edges="7:3 3:1 1:0 0:2"/>
    </vehicle>
    <vehicle id="231" depart="23.10">
        <route edges="7:3 3:1 1:0"/>
    </vehicle>
    <vehicle id="234" depart="23.40">
        <route edges="2:0 0:1 1:3 3:7"/>
    </vehicle>
    <vehicle id="236" depart="23.60">
        <route edges="1:3 3:7"/>
    </vehicle>
    <vehicle id="237" depart="23.70">
        <route edges="6:5 5:1 1:3 3:7"/>
    </vehicle>
    <vehicle id="239" depart="23.90">
        <route edges="7:3 3:1 1:5"/>
    </vehicle>
    <vehicle id="242" depart="24.20">
        <route edges="2:0 0:1"/>
    </vehicle>
    <vehicle id="245" depart="24.50">
        <route edges="2:0 0:1"/>
    </vehicle>
    <vehicle id="247" depart="24.70">
        <route edges="2:0 0:1 1:5"/>
    </vehicle>
    <vehicle id="248" depart="24.80">
        <route edges="0:1 1:3 3:7"/>
    </vehicle>
    <vehicle id="249" depart="24.90">
        <route edges="2:0 0:1"/>
    </vehicle>
    <vehicle id="250" depart="25.00">
        <route edges="6:5 5:1 1:0"/>
    </vehicle>
    <vehicle id="253" depart="25.30">
        <route edges="2:0 0:1"/>
    </vehicle>
    <vehicle id="254" depart="25.40">
        <route edges="7:3 3:1"/>
    </vehicle>
    <vehicle id="256" depart="25.60">
        <route edges="1:5"/>
    </vehicle>
    <vehicle id="257" depart="25.70">
        <route edges="2:0 0:1 1:5"/>
    </vehicle>
    <vehicle id="258" depart="25.80">
        <route edges="3:1"/>
    </vehicle>
    <vehicle id="259" depart="25.90">
        <route edges="2:0 0:1"/>
    </vehicle>
    <vehicle id="261" depart="26.10">
        <route edges="1:3 3:7"/>
    </vehicle>
    <vehicle id="263" depart="26.30">
        <route edges="6:5 5:1 1:3 3:7"/>
    </vehicle>
    <vehicle id="265" depart="26.50">
        <route edges="6:5 5:1 1:0"/>
    </vehicle>
    <vehicle id="266" depart="26.60">
        <route edges="0:1"/>
    </vehicle>
    <vehicle id="268" depart="26.80">
        <route edges="7:3 3:1 1:0 0:2"/>
    </vehicle>
    <vehicle id="269" depart="26.90">
        <route edges="1:3 3:7"/>
    </vehicle>
    <vehicle id="271" depart="27.10">
        <route edges="2:0 0:1"/>
    </vehicle>
    <vehicle id="273" depart="27.30">
        <route edges="7:3 3:1 1:0 0:2"/>
    </vehicle>
    <vehicle id="275" depart="27.50">
        <route edges="2:0 0:1 1:3 3:7"/>
    </vehicle>
    <vehicle id="276" depart="27.60">
        <route edges="5:1 1:0 0:2"/>
    </vehicle>
    <vehicle id="277" depart="27.70">
        <route edges="7:3 3:1 1:5"/>
    </vehicle>
    <vehicle id="278" depart="27.80">
        <route edges="0:1 1:5 5:6"/>
    </vehicle>
    <vehicle id="284" depart="28.40">
        <route edges="6:5 5:1 1:3"/>
    </vehicle>
    <vehicle id="285" depart="28.50">
        <route edges="7:3 3:1 1:5 5:6"/>
    </vehicle>
    <vehicle id="288" depart="28.80">
        <route edges="7:3 3:1 1:5 5:6"/>
    </vehicle>
    <vehicle id="292" depart="29.20">
        <route edges="2:0 0:1"/>
    </vehicle>
    <vehicle id="293" depart="29.30">
        <route edges="7:3 3:1 1:5 5:6"/>
    </vehicle>
    <vehicle id="294" depart="29.40">
        <route edges="7:3 3:1 1:0 0:2"/>
    </vehicle>
    <vehicle id="296" depart="29.60">
        <route edges="5:1 1:0 0:2"/>
    </vehicle>
    <vehicle id="298" depart="29.80">
        <route edges="3:1 1:0 0:2"/>
    </vehicle>
    <vehicle id="301" depart="30.10">
        <route edges="5:1 1:3 3:7"/>
    </vehicle>
    <vehicle id="305" depart="30.50">
        <route edges="7:3 3:1"/>
    </vehicle>
    <vehicle id="306" depart="30.60">
        <route edges="2:0 0:1 1:3 3:7"/>
    </vehicle>
    <vehicle id="307" depart="30.70">
        <route edges="1:3"/>
    </vehicle>
    <vehicle id="311" depart="31.10">
        <route edges="1:0 0:2"/>
    </vehicle>
    <vehicle id="312" depart="31.20">
        <route edges="3:1 1:0"/>
    </vehicle>
    <vehicle id="314" depart="31.40">
        <route edges="0:1 1:5 5:6"/>
    </vehicle>
    <vehicle id="315" depart="31.50">
        <route edges="1:3"/>
    </vehicle>
    <vehicle id="317" depart="31.70">
        <route edges="2:0 0:1 1:3 3:7"/>
    </vehicle>
    <vehicle id="318" depart="31.80">
        <route edges="5:1 1:0 0:2"/>
    </vehicle>
    <vehicle id="320" depart="32.00">
        <route edges="2:0 0:1 1:3 3:7"/>
    </vehicle>
    <vehicle id="323" depart="32.30">
        <route edges="1:5"/>
    </vehicle>
    <vehicle id="325" depart="32.50">
        <route edges="3:1 1:0 0:2"/>
    </vehicle>
    <vehicle id="327" depart="32.70">
        <route edges="2:0 0:1 1:3 3:7"/>
    </vehicle>
    <vehicle id="328" depart="32.80">
        <route edges="0:1"/>
    </vehicle>
    <vehicle id="333" depart="33.30">
        <route edges="1:3"/>
    </vehicle>
    <vehicle id="336" depart="33.60">
        <route edges="3:1 1:0 0:2"/>
    </vehicle>
    <vehicle id="338" depart="33.80">
        <route edges="2:0 0:1 1:3 3:7"/>
    </vehicle>
    <vehicle id="344" depart="34.40">
        <route edges="3:1 1:5 5:6"/>
    </vehicle>
    <vehicle id="349" depart="34.90">
        <route edges="2:0 0:1 1:5"/>
    </vehicle>
    <vehicle id="350" depart="35.00">
        <route edges="0:1 1:3 3:7"/>
    </vehicle>
    <vehicle id="354" depart="35.40">
        <route edges="2:0 0:1 1:3"/>
    </vehicle>
    <vehicle id="357" depart="35.70">
        <route edges="2:0 0:1 1:5 5:6"/>
    </vehicle>
    <vehicle id="359" depart="35.90">
        <route edges="0:1 1:3 3:7"/>
    </vehicle>
    <vehicle id="361" depart="36.10">
        <route edges="6:5 5:1 1:0 0:2"/>
    </vehicle>
    <vehicle id="362" depart="36.20">
        <route edges="7:3 3:1 1:0"/>
    </vehicle>
    <vehicle id="366" depart="36.60">
        <route edges="3:1 1:5"/>
    </vehicle>
    <vehicle id="367" depart="36.70">
        <route edges="5:1 1:0"/>
    </vehicle>
    <vehicle id="368" depart="36.80">
        <route edges="7:3 3:1 1:5"/>
    </vehicle>
    <vehicle id="372" depart="37.20">
        <route edges="7:3 3:1 1:0"/>
    </vehicle>
    <vehicle id="373" depart="37.30">
        <route edges="6:5 5:1 1:3 3:7"/>
    </vehicle>
    <vehicle id="374" depart="37.40">
        <route edges="5:1 1:3 3:7"/>
    </vehicle>
    <vehicle id="375" depart="37.50">
        <route edges="0:1"/>
    </vehicle>
    <vehicle id="376" depart="37.60">
        <route edges="5:1 1:3 3:7"/>
    </vehicle>
    <vehicle id="378" depart="37.80">
        <route edges="3:1 1:0 0:2"/>
    </vehicle>
    <vehicle id="379" depart="37.90">
        <route edges="2:0 0:1"/>
    </vehicle>
    <vehicle id="381" depart="38.10">
        <route edges="3:1"/>
    </vehicle>
    <vehicle id="382" depart="38.20">
        <route edges="2:0 0:1 1:5 5:6"/>
    </vehicle>
    <vehicle id="384" depart="38.40">
        <route edges="0:1"/>
    </vehicle>
    <vehicle id="387" depart="38.70">
        <route edges="1:0"/>
    </vehicle>
    <vehicle id="390" depart="39.00">
        <route edges="7:3 3:1"/>
    </vehicle>
    <vehicle id="392" depart="39.20">
        <route edges="2:0 0:1 1:5"/>
    </vehicle>
    <vehicle id="396" depart="39.60">
        <route edges="2:0 0:1 1:3"/>
    </vehicle>
    <vehicle id="398" depart="39.80">
        <route edges="3:1 1:0"/>
    </vehicle>
    <vehicle id="407" depart="40.70">
        <route edges="0:1 1:3"/>
    </vehicle>
    <vehicle id="410" depart="41.00">
        <route edges="1:0 0:2"/>
    </vehicle>
    <vehicle id="411" depart="41.10">
        <route edges="3:1 1:0 0:2"/>
    </vehicle>
    <vehicle id="412" depart="41.20">
        <route edges="2:0 0:1 1:5 5:6"/>
    </vehicle>
    <vehicle id="417" depart="41.70">
        <route edges="0:1 1:3 3:7"/>
    </vehicle>
    <vehicle id="421" depart="42.10">
        <route edges="1:0"/>
    </vehicle>
    <vehicle id="425" depart="42.50">
        <route edges="7:3 3:1 1:5"/>
    </vehicle>
    <vehicle id="427" depart="42.70">
        <route edges="5:1 1:0 0:2"/>
    </vehicle>
    <vehicle id="428" depart="42.80">
        <route edges="1:3 3:7"/>
    </vehicle>
    <vehicle id="429" depart="42.90">
        <route edges="2:0 0:1 1:3"/>
    </vehicle>
    <vehicle id="430" depart="43.00">
        <route edges="0:1 1:3 3:7"/>
    </vehicle>
    <vehicle id="433" depart="43.30">
        <route edges="1:3"/>
    </vehicle>
    <vehicle id="437" depart="43.70">
        <route edges="7:3 3:1 1:0 0:2"/>
    </vehicle>
    <vehicle id="440" depart="44.00">
        <route edges="2:0 0:1 1:3"/>
    </vehicle>
    <vehicle id="441" depart="44.10">
        <route edges="5:1 1:3 3:7"/>
    </vehicle>
    <vehicle id="442" depart="44.20">
        <route edges="0:1 1:3"/>
    </vehicle>
    <vehicle id="443" depart="44.30">
        <route edges="7:3 3:1"/>
    </vehicle>
    <vehicle id="446" depart="44.60">
        <route edges="6:5 5:1"/>
    </vehicle>
    <vehicle id="447" depart="44.70">
        <route edges="7:3 3:1 1:0 0:2"/>
    </vehicle>
    <vehicle id="450" depart="45.00">
        <route edges="5:1 1:0"/>
    </vehicle>
    <vehicle id="455" depart="45.50">
        <route edges="0:1 1:3"/>
    </vehicle>
    <vehicle id="461" depart="46.10">
        <route edges="7:3 3:1"/>
    </vehicle>
    <vehicle id="462" depart="46.20">
        <route edges="7:3 3:1 1:0 0:2"/>
    </vehicle>
    <vehicle id="464" depart="46.40">
        <route edges="0:1 1:3 3:7"/>
    </vehicle>
    <vehicle id="465" depart="46.50">
        <route edges="0:1"/>
    </vehicle>
    <vehicle id="466" depart="46.60">
        <route edges="6:5 5:1 1:3 3:7"/>
    </vehicle>
    <vehicle id="467" depart="46.70">
        <route edges="2:0 0:1"/>
    </vehicle>
    <vehicle id="473" depart="47.30">
        <route edges="7:3 3:1 1:0"/>
    </vehicle>
    <vehicle id="474" depart="47.40">
        <route edges="1:3 3:7"/>
    </vehicle>
    <vehicle id="475" depart="47.50">
        <route edges="2:0 0:1 1:3 3:7"/>
    </vehicle>
    <vehicle id="477" depart="47.70">
        <route edges="5:1 1:0"/>
    </vehicle>
    <vehicle id="483" depart="48.30">
        <route edges="0:1 1:3 3:7"/>
    </vehicle>
    <vehicle id="484" depart="48.40">
        <route edges="0:1 1:3 3:7"/>
    </vehicle>
    <vehicle id="485" depart="48.50">
        <route edges="5:1 1:3 3:7"/>
    </vehicle>
    <vehicle id="486" depart="48.60">
        <route edges="2:0 0:1 1:3"/>
    </vehicle>
    <vehicle id="489" depart="48.90">
        <route edges="7:3 3:1 1:5"/>
    </vehicle>
    <vehicle id="490" depart="49.00">
        <route edges="0:1 1:3 3:7"/>
    </vehicle>
    <vehicle id="491" depart="49.10">
        <route edges="2:0 0:1 1:3 3:7"/>
    </vehicle>
    <vehicle id="494" depart="49.40">
        <route edges="1:0 0:2"/>
    </vehicle>
    <vehicle id="497" depart="49.70">
        <route edges="2:0 0:1"/>
    </vehicle>
    <vehicle id="500" depart="50.00">
        <route edges="0:1 1:3 3:7"/>
    </vehicle>
    <vehicle id="501" depart="50.10">
        <route edges="2:0 0:1 1:3"/>
    </vehicle>
    <vehicle id="503" depart="50.30">
        <route edges="2:0 0:1 1:3 3:7"/>
    </vehicle>
    <vehicle id="507" depart="50.70">
        <route edges="1:0 0:2"/>
    </vehicle>
    <vehicle id="508" depart="50.80">
        <route edges="7:3 3:1 1:0"/>
    </vehicle>
    <vehicle id="509" depart="50.90">
        <route edges="2:0 0:1"/>
    </vehicle>
    <vehicle id="510" depart="51.00">
        <route edges="1:3 3:7"/>
    </vehicle>
    <vehicle id="511" depart="51.10">
        <route edges="5:1 1:0 0:2"/>
    </vehicle>
    <vehicle id="513" depart="51.30">
        <route edges="6:5 5:1 1:0 0:2"/>
    </vehicle>
    <vehicle id="517" depart="51.70">
        <route edges="3:1 1:0 0:2"/>
    </vehicle>
    <vehicle id="518" depart="51.80">
        <route edges="0:1"/>
    </vehicle>
    <vehicle id="519" depart="51.90">
        <route edges="7:3 3:1"/>
    </vehicle>
    <vehicle id="520" depart="52.00">
        <route edges="2:0 0:1 1:5 5:6"/>
    </vehicle>
    <vehicle id="521" depart="52.10">
        <route edges="1:0 0:2"/>
    </vehicle>
    <vehicle id="523" depart="52.30">
        <route edges="0:1"/>
    </vehicle>
    <vehicle id="525" depart="52.50">
        <route edges="1:0 0:2"/>
    </vehicle>
    <vehicle id="526" depart="52.60">
        <route edges="7:3 3:1"/>
    </vehicle>
    <vehicle id="527" depart="52.70">
        <route edges="7:3 3:1 1:0 0:2"/>
    </vehicle>
    <vehicle id="529" depart="52.90">
        <route edges="0:1 1:3 3:7"/>
    </vehicle>
    <vehicle id="531" depart="53.10">
        <route edges="3:1 1:5"/>
    </vehicle>
    <vehicle id="536" depart="53.60">
        <route edges="3:1 1:0 0:2"/>
    </vehicle>
    <vehicle id="537" depart="53.70">
        <route edges="7:3 3:1 1:0"/>
    </vehicle>
    <vehicle id="538" depart="53.80">
        <route edges="7:3 3:1"/>
    </vehicle>
    <vehicle id="543" depart="54.30">
        <route edges="2:0 0:1 1:3"/>
    </vehicle>
    <vehicle id="544" depart="54.40">
        <route edges="0:1"/>
    </vehicle>
    <vehicle id="545" depart="54.50">
        <route edges="3:1 1:0 0:2"/>
    </vehicle>
    <vehicle id="553" depart="55.30">
        <route edges="3:1 1:0 0:2"/>
    </vehicle>
    <vehicle id="554" depart="55.40">
        <route edges="6:5 5:1 1:3 3:7"/>
    </vehicle>
    <vehicle id="556" depart="55.60">
        <route edges="6:5 5:1 1:0 0:2"/>
    </vehicle>
    <vehicle id="558" depart="55.80">
        <route edges="0:1"/>
    </vehicle>
    <vehicle id="559" depart="55.90">
        <route edges="6:5 5:1"/>
    </vehicle>
    <vehicle id="561" depart="56.10">
        <route edges="1:3 3:7"/>
    </vehicle>
    <vehicle id="563" depart="56.30">
        <route edges="7:3 3:1 1:0"/>
    </vehicle>
    <vehicle id="564" depart="56.40">
        <route edges="2:0 0:1 1:3 3:7"/>
    </vehicle>
    <vehicle id="565" depart="56.50">
        <route edges="7:3 3:1 1:0 0:2"/>
    </vehicle>
    <vehicle id="567" depart="56.70">
        <route edges="2:0 0:1 1:3 3:7"/>
    </vehicle>
    <vehicle id="568" depart="56.80">
        <route edges="6:5 5:1"/>
    </vehicle>
    <vehicle id="572" depart="57.20">
        <route edges="7:3 3:1 1:5 5:6"/>
    </vehicle>
    <vehicle id="575" depart="57.50">
        <route edges="2:0 0:1 1:3 3:7"/>
    </vehicle>
    <vehicle id="578" depart="57.80">
        <route edges="6:5 5:1 1:3"/>
    </vehicle>
    <vehicle id="580" depart="58.00">
        <route edges="5:1 1:3 3:7"/>
    </vehicle>
    <vehicle id="583" depart="58.30">
        <route edges="1:0"/>
    </vehicle>
    <vehicle id="585" depart="58.50">
        <route edges="3:1 1:5 5:6"/>
    </vehicle>
    <vehicle id="588" depart="58.80">
        <route edges="5:1 1:3 3:7"/>
    </vehicle>
    <vehicle id="589" depart="58.90">
        <route edges="0:1 1:3 3:7"/>
    </vehicle>
    <vehicle id="591" depart="59.10">
        <route edges="7:3 3:1"/>
    </vehicle>
    <vehicle id="592" depart="59.20">
        <route edges="0:1"/>
    </vehicle>
    <vehicle id="593" depart="59.30">
        <route edges="2:0 0:1 1:3"/>
    </vehicle>
    <vehicle id="595" depart="59.50">
        <route edges="6:5 5:1 1:3 3:7"/>
    </vehicle>
    <vehicle id="597" depart="59.70">
        <route edges="2:0 0:1 1:3"/>
    </vehicle>
    <vehicle id="599" depart="59.90">
        <route edges="2:0 0:1 1:3 3:7"/>
    </vehicle>
    <vehicle id="600" depart="60.00">
        <route edges="3:1 1:5 5:6"/>
    </vehicle>
    <vehicle id="601" depart="60.10">
        <route edges="1:0 0:2"/>
    </vehicle>
    <vehicle id="602" depart="60.20">
        <route edges="2:0 0:1 1:3"/>
    </vehicle>
    <vehicle id="604" depart="60.40">
        <route edges="0:1 1:3"/>
    </vehicle>
    <vehicle id="606" depart="60.60">
        <route edges="3:1 1:0 0:2"/>
    </vehicle>
    <vehicle id="609" depart="60.90">
        <route edges="5:1 1:3"/>
    </vehicle>
    <vehicle id="613" depart="61.30">
        <route edges="1:3"/>
    </vehicle>
    <vehicle id="614" depart="61.40">
        <route edges="0:1 1:5"/>
    </vehicle>
    <vehicle id="620" depart="62.00">
        <route edges="2:0 0:1 1:3 3:7"/>
    </vehicle>
    <vehicle id="621" depart="62.10">
        <route edges="0:1"/>
    </vehicle>
    <vehicle id="625" depart="62.50">
        <route edges="2:0 0:1"/>
    </vehicle>
    <vehicle id="626" depart="62.60">
        <route edges="6:5 5:1 1:0"/>
    </vehicle>
    <vehicle id="628" depart="62.80">
        <route edges="7:3 3:1 1:0 0:2"/>
    </vehicle>
    <vehicle id="629" depart="62.90">
        <route edges="2:0 0:1 1:3 3:7"/>
    </vehicle>
    <vehicle id="630" depart="63.00">
        <route edges="0:1"/>
    </vehicle>
    <vehicle id="635" depart="63.50">
        <route edges="7:3 3:1 1:0 0:2"/>
    </vehicle>
    <vehicle id="636" depart="63.60">
        <route edges="7:3 3:1"/>
    </vehicle>
    <vehicle id="637" depart="63.70">
        <route edges="2:0 0:1 1:5 5:6"/>
    </vehicle>
    <vehicle id="638" depart="63.80">
        <route edges="3:1 1:0 0:2"/>
    </vehicle>
    <vehicle id="639" depart="63.90">
        <route edges="7:3 3:1"/>
    </vehicle>
    <vehicle id="641" depart="64.10">
        <route edges="2:0 0:1"/>
    </vehicle>
    <vehicle id="643" depart="64.30">
        <route edges="2:0 0:1 1:5"/>
    </vehicle>
    <vehicle id="644" depart="64.40">
        <route edges="2:0 0:1"/>
    </vehicle>
    <vehicle id="646" depart="64.60">
        <route edges="2:0 0:1"/>
    </vehicle>
    <vehicle id="647" depart="64.70">
        <route edges="2:0 0:1 1:5 5:6"/>
    </vehicle>
    <vehicle id="656" depart="65.60">
        <route edges="1:3 3:7"/>
    </vehicle>
    <vehicle id="662" depart="66.20">
        <route edges="1:0"/>
    </vehicle>
    <vehicle id="663" depart="66.30">
        <route edges="5:1 1:3 3:7"/>
    </vehicle>
    <vehicle id="664" depart="66.40">
        <route edges="7:3 3:1 1:5 5:6"/>
    </vehicle>
    <vehicle id="667" depart="66.70">
        <route edges="2:0 0:1 1:3 3:7"/>
    </vehicle>
    <vehicle id="668" depart="66.80">
        <route edges="0:1 1:3"/>
    </vehicle>
    <vehicle id="673" depart="67.30">
        <route edges="0:1 1:3 3:7"/>
    </vehicle>
    <vehicle id="674" depart="67.40">
        <route edges="2:0 0:1"/>
    </vehicle>
    <vehicle id="675" depart="67.50">
        <route edges="1:0"/>
    </vehicle>
    <vehicle id="678" depart="67.80">
        <route edges="2:0 0:1 1:3"/>
    </vehicle>
    <vehicle id="679" depart="67.90">
        <route edges="7:3 3:1"/>
    </vehicle>
    <vehicle id="680" depart="68.00">
        <route edges="6:5 5:1 1:0 0:2"/>
    </vehicle>
    <vehicle id="681" depart="68.10">
        <route edges="0:1 1:5"/>
    </vehicle>
    <vehicle id="683" depart="68.30">
        <route edges="3:1"/>
    </vehicle>
    <vehicle id="685" depart="68.50">
        <route edges="2:0 0:1"/>
    </vehicle>
    <vehicle id="686" depart="68.60">
        <route edges="5:1 1:0 0:2"/>
    </vehicle>
    <vehicle id="688" depart="68.80">
        <route edges="7:3 3:1 1:0 0:2"/>
    </vehicle>
    <vehicle id="689" depart="68.90">
        <route edges="7:3 3:1 1:0 0:2"/>
    </vehicle>
    <vehicle id="691" depart="69.10">
        <route edges="0:1 1:5"/>
    </vehicle>
    <vehicle id="692" depart="69.20">
        <route edges="2:0 0:1 1:3 3:7"/>
    </vehicle>
    <vehicle id="694" depart="69.40">
        <route edges="6:5 5:1 1:3 3:7"/>
    </vehicle>
    <vehicle id="697" depart="69.70">
        <route edges="1:0 0:2"/>
    </vehicle>
    <vehicle id="699" depart="69.90">
        <route edges="1:3 3:7"/>
    </vehicle>
    <vehicle id="701" depart="70.10">
        <route edges="2:0 0:1 1:5 5:6"/>
    </vehicle>
    <vehicle id="704" depart="70.40">
        <route edges="2:0 0:1 1:3 3:7"/>
    </vehicle>
    <vehicle id="714" depart="71.40">
        <route edges="6:5 5:1 1:3"/>
    </vehicle>
    <vehicle id="715" depart="71.50">
        <route edges="2:0 0:1 1:3"/>
    </vehicle>
    <vehicle id="718" depart="71.80">
        <route edges="2:0 0:1"/>
    </vehicle>
    <vehicle id="719" depart="71.90">
        <route edges="7:3 3:1 1:0 0:2"/>
    </vehicle>
    <vehicle id="723" depart="72.30">
        <route edges="7:3 3:1 1:0 0:2"/>
    </vehicle>
    <vehicle id="724" depart="72.40">
        <route edges="3:1 1:0"/>
    </vehicle>
    <vehicle id="725" depart="72.50">
        <route edges="2:0 0:1"/>
    </vehicle>
    <vehicle id="727" depart="72.70">