<?xml version="1.0" encoding="UTF-8"?>

<!-- generated on Thu Feb 13 12:37:43 2014 by SUMO duarouter Version 0.18.0
<?xml version="1.0" encoding="UTF-8"?>

<configuration xmlns:xsi="http://www.w3.org/2001/XMLSchema-instance" xsi:noNamespaceSchemaLocation="http://sumo.sf.net/xsd/duarouterConfiguration.xsd">

    <input>
        <net-file value="simpleT.net.xml"/>
        <trip-files value="experimentos/simpleT.p0.1.4.trips.xml"/>
    </input>

    <output>
        <output-file value="experimentos/simpleT.p0.1.4.rou.xml"/>
    </output>

    <processing>
        <ignore-errors value="true"/>
    </processing>

    <random_number>
        <random value="true"/>
    </random_number>

</configuration>
-->

<routes xmlns:xsi="http://www.w3.org/2001/XMLSchema-instance" xsi:noNamespaceSchemaLocation="http://sumo.sf.net/xsd/routes_file.xsd">
    <vehicle id="0" depart="0.00">
        <route edges="0:1 1:3"/>
    </vehicle>
    <vehicle id="2" depart="0.20">
        <route edges="7:3 3:1 1:0 0:2"/>
    </vehicle>
    <vehicle id="3" depart="0.30">
        <route edges="7:3 3:1 1:0 0:2"/>
    </vehicle>
    <vehicle id="5" depart="0.50">
        <route edges="6:5 5:1 1:3 3:7"/>
    </vehicle>
    <vehicle id="8" depart="0.80">
        <route edges="1:3"/>
    </vehicle>
    <vehicle id="9" depart="0.90">
        <route edges="0:1 1:5"/>
    </vehicle>
    <vehicle id="11" depart="1.10">
        <route edges="6:5 5:1 1:3"/>
    </vehicle>
    <vehicle id="12" depart="1.20">
        <route edges="2:0 0:1 1:3"/>
    </vehicle>
    <vehicle id="13" depart="1.30">
        <route edges="1:0 0:2"/>
    </vehicle>
    <vehicle id="14" depart="1.40">
        <route edges="7:3 3:1 1:0 0:2"/>
    </vehicle>
    <vehicle id="15" depart="1.50">
        <route edges="0:1 1:3"/>
    </vehicle>
    <vehicle id="16" depart="1.60">
        <route edges="7:3 3:1"/>
    </vehicle>
    <vehicle id="19" depart="1.90">
        <route edges="1:0 0:2"/>
    </vehicle>
    <vehicle id="21" depart="2.10">
        <route edges="6:5 5:1 1:3 3:7"/>
    </vehicle>
    <vehicle id="22" depart="2.20">
        <route edges="1:3"/>
    </vehicle>
    <vehicle id="23" depart="2.30">
        <route edges="7:3 3:1"/>
    </vehicle>
    <vehicle id="24" depart="2.40">
        <route edges="0:1 1:3 3:7"/>
    </vehicle>
    <vehicle id="25" depart="2.50">
        <route edges="3:1"/>
    </vehicle>
    <vehicle id="26" depart="2.60">
        <route edges="3:1 1:5"/>
    </vehicle>
    <vehicle id="30" depart="3.00">
        <route edges="7:3 3:1"/>
    </vehicle>
    <vehicle id="31" depart="3.10">
        <route edges="6:5 5:1 1:3 3:7"/>
    </vehicle>
    <vehicle id="32" depart="3.20">
        <route edges="1:0"/>
    </vehicle>
    <vehicle id="33" depart="3.30">
        <route edges="3:1"/>
    </vehicle>
    <vehicle id="35" depart="3.50">
        <route edges="1:3"/>
    </vehicle>
    <vehicle id="36" depart="3.60">
        <route edges="1:5 5:6"/>
    </vehicle>
    <vehicle id="38" depart="3.80">
        <route edges="2:0 0:1"/>
    </vehicle>
    <vehicle id="39" depart="3.90">
        <route edges="0:1 1:5 5:6"/>
    </vehicle>
    <vehicle id="40" depart="4.00">
        <route edges="1:0 0:2"/>
    </vehicle>
    <vehicle id="43" depart="4.30">
        <route edges="7:3 3:1 1:0"/>
    </vehicle>
    <vehicle id="46" depart="4.60">
        <route edges="2:0 0:1 1:5"/>
    </vehicle>
    <vehicle id="54" depart="5.40">
        <route edges="7:3 3:1 1:0"/>
    </vehicle>
    <vehicle id="57" depart="5.70">
        <route edges="0:1 1:3"/>
    </vehicle>
    <vehicle id="58" depart="5.80">
        <route edges="2:0 0:1 1:3 3:7"/>
    </vehicle>
    <vehicle id="60" depart="6.00">
        <route edges="2:0 0:1 1:3 3:7"/>
    </vehicle>
    <vehicle id="63" depart="6.30">
        <route edges="2:0 0:1 1:3 3:7"/>
    </vehicle>
    <vehicle id="67" depart="6.70">
        <route edges="3:1 1:5 5:6"/>
    </vehicle>
    <vehicle id="68" depart="6.80">
        <route edges="6:5 5:1 1:0"/>
    </vehicle>
    <vehicle id="71" depart="7.10">
        <route edges="7:3 3:1"/>
    </vehicle>
    <vehicle id="72" depart="7.20">
        <route edges="3:1 1:0 0:2"/>
    </vehicle>
    <vehicle id="75" depart="7.50">
        <route edges="2:0 0:1"/>
    </vehicle>
    <vehicle id="76" depart="7.60">
        <route edges="6:5 5:1 1:0 0:2"/>
    </vehicle>
    <vehicle id="78" depart="7.80">
        <route edges="1:0"/>
    </vehicle>
    <vehicle id="79" depart="7.90">
        <route edges="7:3 3:1 1:5 5:6"/>
    </vehicle>
    <vehicle id="82" depart="8.20">
        <route edges="7:3 3:1"/>
    </vehicle>
    <vehicle id="84" depart="8.40">
        <route edges="6:5 5:1"/>
    </vehicle>
    <vehicle id="85" depart="8.50">
        <route edges="5:1 1:3 3:7"/>
    </vehicle>
    <vehicle id="86" depart="8.60">
        <route edges="2:0 0:1 1:3 3:7"/>
    </vehicle>
    <vehicle id="99" depart="9.90">
        <route edges="1:0 0:2"/>
    </vehicle>
    <vehicle id="103" depart="10.30">
        <route edges="7:3 3:1 1:0 0:2"/>
    </vehicle>
    <vehicle id="104" depart="10.40">
        <route edges="2:0 0:1"/>
    </vehicle>
    <vehicle id="106" depart="10.60">
        <route edges="6:5 5:1 1:3 3:7"/>
    </vehicle>
    <vehicle id="109" depart="10.90">
        <route edges="2:0 0:1"/>
    </vehicle>
    <vehicle id="110" depart="11.00">
        <route edges="2:0 0:1 1:3"/>
    </vehicle>
    <vehicle id="111" depart="11.10">
        <route edges="3:1 1:5 5:6"/>
    </vehicle>
    <vehicle id="113" depart="11.30">
        <route edges="2:0 0:1 1:3 3:7"/>
    </vehicle>
    <vehicle id="115" depart="11.50">
        <route edges="2:0 0:1 1:5 5:6"/>
    </vehicle>
    <vehicle id="118" depart="11.80">
        <route edges="3:1 1:0 0:2"/>
    </vehicle>
    <vehicle id="119" depart="11.90">
        <route edges="2:0 0:1 1:3 3:7"/>
    </vehicle>
    <vehicle id="120" depart="12.00">
        <route edges="7:3 3:1 1:0 0:2"/>
    </vehicle>
    <vehicle id="125" depart="12.50">
        <route edges="1:3 3:7"/>
    </vehicle>
    <vehicle id="126" depart="12.60">
        <route edges="2:0 0:1 1:3 3:7"/>
    </vehicle>
    <vehicle id="128" depart="12.80">
        <route edges="1:3 3:7"/>
    </vehicle>
    <vehicle id="129" depart="12.90">
        <route edges="0:1 1:5 5:6"/>
    </vehicle>
    <vehicle id="131" depart="13.10">
        <route edges="1:0 0:2"/>
    </vehicle>
    <vehicle id="134" depart="13.40">
        <route edges="1:3 3:7"/>
    </vehicle>
    <vehicle id="140" depart="14.00">
        <route edges="0:1 1:5"/>
    </vehicle>
    <vehicle id="150" depart="15.00">
        <route edges="7:3 3:1 1:0 0:2"/>
    </vehicle>
    <vehicle id="151" depart="15.10">
        <route edges="2:0 0:1 1:3"/>
    </vehicle>
    <vehicle id="153" depart="15.30">
        <route edges="1:0 0:2"/>
    </vehicle>
    <vehicle id="158" depart="15.80">
        <route edges="2:0 0:1 1:3 3:7"/>
    </vehicle>
    <vehicle id="159" depart="15.90">
        <route edges="2:0 0:1 1:3 3:7"/>
    </vehicle>
    <vehicle id="160" depart="16.00">
        <route edges="7:3 3:1"/>
    </vehicle>
    <vehicle id="161" depart="16.10">
        <route edges="0:1 1:3"/>
    </vehicle>
    <vehicle id="162" depart="16.20">
        <route edges="2:0 0:1"/>
    </vehicle>
    <vehicle id="165" depart="16.50">
        <route edges="2:0 0:1 1:3 3:7"/>
    </vehicle>
    <vehicle id="166" depart="16.60">
        <route edges="7:3 3:1 1:0 0:2"/>
    </vehicle>
    <vehicle id="171" depart="17.10">
        <route edges="7:3 3:1 1:5 5:6"/>
    </vehicle>
    <vehicle id="172" depart="17.20">
        <route edges="0:1 1:3 3:7"/>
    </vehicle>
    <vehicle id="175" depart="17.50">
        <route edges="1:0"/>
    </vehicle>
    <vehicle id="179" depart="17.90">
        <route edges="2:0 0:1 1:5 5:6"/>
    </vehicle>
    <vehicle id="180" depart="18.00">
        <route edges="0:1 1:5"/>
    </vehicle>
    <vehicle id="181" depart="18.10">
        <route edges="0:1 1:3 3:7"/>
    </vehicle>
    <vehicle id="185" depart="18.50">
        <route edges="6:5 5:1 1:3 3:7"/>
    </vehicle>
    <vehicle id="186" depart="18.60">
        <route edges="5:1 1:3 3:7"/>
    </vehicle>
    <vehicle id="188" depart="18.80">
        <route edges="1:0 0:2"/>
    </vehicle>
    <vehicle id="189" depart="18.90">
        <route edges="1:0 0:2"/>
    </vehicle>
    <vehicle id="192" depart="19.20">
        <route edges="0:1 1:3 3:7"/>
    </vehicle>
    <vehicle id="193" depart="19.30">
        <route edges="2:0 0:1 1:5"/>
    </vehicle>
    <vehicle id="195" depart="19.50">
        <route edges="2:0 0:1 1:3"/>
    </vehicle>
    <vehicle id="197" depart="19.70">
        <route edges="2:0 0:1"/>
    </vehicle>
    <vehicle id="198" depart="19.80">
        <route edges="2:0 0:1 1:3 3:7"/>
    </vehicle>
    <vehicle id="200" depart="20.00">
        <route edges="2:0 0:1 1:3 3:7"/>
    </vehicle>
    <vehicle id="201" depart="20.10">
        <route edges="7:3 3:1 1:5 5:6"/>
    </vehicle>
    <vehicle id="204" depart="20.40">
        <route edges="1:3 3:7"/>
    </vehicle>
    <vehicle id="206" depart="20.60">
        <route edges="0:1"/>
    </vehicle>
    <vehicle id="207" depart="20.70">
        <route edges="0:1 1:5"/>
    </vehicle>
    <vehicle id="208" depart="20.80">
        <route edges="5:1 1:3 3:7"/>
    </vehicle>
    <vehicle id="209" depart="20.90">
        <route edges="0:1 1:3"/>
    </vehicle>
    <vehicle id="210" depart="21.00">
        <route edges="2:0 0:1 1:3 3:7"/>
    </vehicle>
    <vehicle id="213" depart="21.30">
        <route edges="2:0 0:1 1:3 3:7"/>
    </vehicle>
    <vehicle id="214" depart="21.40">
        <route edges="2:0 0:1 1:5 5:6"/>
    </vehicle>
    <vehicle id="215" depart="21.50">
        <route edges="0:1 1:3 3:7"/>
    </vehicle>
    <vehicle id="216" depart="21.60">
        <route edges="7:3 3:1 1:0"/>
    </vehicle>
    <vehicle id="218" depart="21.80">
        <route edges="0:1 1:3 3:7"/>
    </vehicle>
    <vehicle id="219" depart="21.90">
        <route edges="2:0 0:1 1:3 3:7"/>
    </vehicle>
    <vehicle id="220" depart="22.00">
        <route edges="7:3 3:1 1:0 0:2"/>
    </vehicle>
    <vehicle id="222" depart="22.20">
        <route edges="2:0 0:1 1:3 3:7"/>
    </vehicle>
    <vehicle id="223" depart="22.30">
        <route edges="7:3 3:1 1:0 0:2"/>
    </vehicle>
    <vehicle id="224" depart="22.40">
        <route edges="0:1 1:3 3:7"/>
    </vehicle>
    <vehicle id="225" depart="22.50">
        <route edges="3:1 1:0 0:2"/>
    </vehicle>
    <vehicle id="228" depart="22.80">
        <route edges="7:3 3:1 1:0 0:2"/>
    </vehicle>
    <vehicle id="231" depart="23.10">
        <route edges="2:0 0:1 1:3 3:7"/>
    </vehicle>
    <vehicle id="232" depart="23.20">
        <route edges="7:3 3:1"/>
    </vehicle>
    <vehicle id="233" depart="23.30">
        <route edges="2:0 0:1 1:3"/>
    </vehicle>
    <vehicle id="236" depart="23.60">
        <route edges="7:3 3:1 1:0 0:2"/>
    </vehicle>
    <vehicle id="237" depart="23.70">
        <route edges="3:1 1:0 0:2"/>
    </vehicle>
    <vehicle id="239" depart="23.90">
        <route edges="6:5 5:1 1:3 3:7"/>
    </vehicle>
    <vehicle id="243" depart="24.30">
        <route edges="2:0 0:1 1:3 3:7"/>
    </vehicle>
    <vehicle id="244" depart="24.40">
        <route edges="1:0"/>
    </vehicle>
    <vehicle id="245" depart="24.50">
        <route edges="7:3 3:1"/>
    </vehicle>
    <vehicle id="250" depart="25.00">
        <route edges="1:3 3:7"/>
    </vehicle>
    <vehicle id="253" depart="25.30">
        <route edges="2:0 0:1 1:3 3:7"/>
    </vehicle>
    <vehicle id="254" depart="25.40">
        <route edges="2:0 0:1"/>
    </vehicle>
    <vehicle id="255" depart="25.50">
        <route edges="2:0 0:1 1:3 3:7"/>
    </vehicle>
    <vehicle id="257" depart="25.70">
        <route edges="2:0 0:1 1:5"/>
    </vehicle>
    <vehicle id="258" depart="25.80">
        <route edges="5:1 1:0 0:2"/>
    </vehicle>
    <vehicle id="261" depart="26.10">
        <route edges="3:1 1:0"/>
    </vehicle>
    <vehicle id="267" depart="26.70">
        <route edges="2:0 0:1 1:3 3:7"/>
    </vehicle>
    <vehicle id="273" depart="27.30">
        <route edges="7:3 3:1"/>
    </vehicle>
    <vehicle id="275" depart="27.50">
        <route edges="5:1 1:0"/>
    </vehicle>
    <vehicle id="276" depart="27.60">
        <route edges="2:0 0:1 1:3 3:7"/>
    </vehicle>
    <vehicle id="279" depart="27.90">
        <route edges="7:3 3:1 1:0"/>
    </vehicle>
    <vehicle id="280" depart="28.00">
        <route edges="2:0 0:1 1:3 3:7"/>
    </vehicle>
    <vehicle id="281" depart="28.10">
        <route edges="0:1 1:5 5:6"/>
    </vehicle>
    <vehicle id="285" depart="28.50">
        <route edges="7:3 3:1 1:0"/>
    </vehicle>
    <vehicle id="286" depart="28.60">
        <route edges="3:1 1:5 5:6"/>
    </vehicle>
    <vehicle id="290" depart="29.00">
        <route edges="7:3 3:1 1:0 0:2"/>
    </vehicle>
    <vehicle id="291" depart="29.10">
        <route edges="2:0 0:1 1:3"/>
    </vehicle>
    <vehicle id="295" depart="29.50">
        <route edges="7:3 3:1 1:5 5:6"/>
    </vehicle>
    <vehicle id="296" depart="29.60">
        <route edges="3:1 1:0 0:2"/>
    </vehicle>
    <vehicle id="299" depart="29.90">
        <route edges="7:3 3:1 1:0 0:2"/>
    </vehicle>
    <vehicle id="300" depart="30.00">
        <route edges="0:1 1:5"/>
    </vehicle>
    <vehicle id="301" depart="30.10">
        <route edges="3:1 1:0 0:2"/>
    </vehicle>
    <vehicle id="304" depart="30.40">
        <route edges="3:1"/>
    </vehicle>
    <vehicle id="305" depart="30.50">
        <route edges="1:3 3:7"/>
    </vehicle>
    <vehicle id="309" depart="30.90">
        <route edges="1:0 0:2"/>
    </vehicle>
    <vehicle id="312" depart="31.20">
        <route edges="7:3 3:1 1:0"/>
    </vehicle>
    <vehicle id="313" depart="31.30">
        <route edges="6:5 5:1 1:3"/>
    </vehicle>
    <vehicle id="315" depart="31.50">
        <route edges="7:3 3:1 1:0 0:2"/>
    </vehicle>
    <vehicle id="317" depart="31.70">
        <route edges="3:1"/>
    </vehicle>
    <vehicle id="318" depart="31.80">
        <route edges="1:3 3:7"/>
    </vehicle>
    <vehicle id="320" depart="32.00">
        <route edges="7:3 3:1 1:0 0:2"/>
    </vehicle>
    <vehicle id="322" depart="32.20">
        <route edges="3:1 1:0"/>
    </vehicle>
    <vehicle id="323" depart="32.30">
        <route edges="0:1 1:5 5:6"/>
    </vehicle>
    <vehicle id="324" depart="32.40">
        <route edges="0:1"/>
    </vehicle>
    <vehicle id="326" depart="32.60">
        <route edges="3:1 1:0 0:2"/>
    </vehicle>
    <vehicle id="327" depart="32.70">
        <route edges="3:1 1:0"/>
    </vehicle>
    <vehicle id="328" depart="32.80">
        <route edges="3:1"/>
    </vehicle>
    <vehicle id="330" depart="33.00">
        <route edges="0:1 1:5"/>
    </vehicle>
    <vehicle id="332" depart="33.20">
        <route edges="0:1"/>
    </vehicle>
    <vehicle id="334" depart="33.40">
        <route edges="0:1 1:5"/>
    </vehicle>
    <vehicle id="337" depart="33.70">
        <route edges="5:1 1:0 0:2"/>
    </vehicle>
    <vehicle id="339" depart="33.90">
        <route edges="2:0 0:1 1:3 3:7"/>
    </vehicle>
    <vehicle id="340" depart="34.00">
        <route edges="1:0 0:2"/>
    </vehicle>
    <vehicle id="341" depart="34.10">
        <route edges="5:1 1:3 3:7"/>
    </vehicle>
    <vehicle id="342" depart="34.20">
        <route edges="2:0 0:1 1:3"/>
    </vehicle>
    <vehicle id="343" depart="34.30">
        <route edges="7:3 3:1 1:0 0:2"/>
    </vehicle>
    <vehicle id="344" depart="34.40">
        <route edges="1:0"/>
    </vehicle>
    <vehicle id="345" depart="34.50">
        <route edges="6:5 5:1"/>
    </vehicle>
    <vehicle id="347" depart="34.70">
        <route edges="5:1 1:0"/>
    </vehicle>
    <vehicle id="349" depart="34.90">
        <route edges="6:5 5:1 1:3 3:7"/>
    </vehicle>
    <vehicle id="354" depart="35.40">
        <route edges="7:3 3:1 1:0 0:2"/>
    </vehicle>
    <vehicle id="355" depart="35.50">
        <route edges="6:5 5:1 1:0 0:2"/>
    </vehicle>
    <vehicle id="356" depart="35.60">
        <route edges="6:5 5:1 1:0 0:2"/>
    </vehicle>
    <vehicle id="360" depart="36.00">
        <route edges="7:3 3:1 1:0"/>
    </vehicle>
    <vehicle id="362" depart="36.20">
        <route edges="2:0 0:1 1:5"/>
    </vehicle>
    <vehicle id="365" depart="36.50">
        <route edges="7:3 3:1 1:0 0:2"/>
    </vehicle>
    <vehicle id="366" depart="36.60">
        <route edges="0:1 1:5"/>
    </vehicle>
    <vehicle id="368" depart="36.80">
        <route edges="7:3 3:1 1:0"/>
    </vehicle>
    <vehicle id="371" depart="37.10">
        <route edges="0:1 1:3 3:7"/>
    </vehicle>
    <vehicle id="372" depart="37.20">
        <route edges="7:3 3:1 1:0 0:2"/>
    </vehicle>
    <vehicle id="375" depart="37.50">
        <route edges="7:3 3:1"/>
    </vehicle>
    <vehicle id="379" depart="37.90">
        <route edges="3:1 1:5 5:6"/>
    </vehicle>
    <vehicle id="383" depart="38.30">
        <route edges="1:0"/>
    </vehicle>
    <vehicle id="385" depart="38.50">
        <route edges="7:3 3:1 1:0 0:2"/>
    </vehicle>
    <vehicle id="387" depart="38.70">
        <route edges="2:0 0:1 1:3 3:7"/>
    </vehicle>
    <vehicle id="388" depart="38.80">
        <route edges="5:1 1:3 3:7"/>
    </vehicle>
    <vehicle id="390" depart="39.00">
        <route edges="7:3 3:1"/>
    </vehicle>
    <vehicle id="391" depart="39.10">
        <route edges="1:0 0:2"/>
    </vehicle>
    <vehicle id="392" depart="39.20">
        <route edges="7:3 3:1 1:0"/>
    </vehicle>
    <vehicle id="393" depart="39.30">
        <route edges="2:0 0:1 1:3 3:7"/>
    </vehicle>
    <vehicle id="394" depart="39.40">
        <route edges="3:1 1:0"/>
    </vehicle>
    <vehicle id="396" depart="39.60">
        <route edges="0:1 1:5 5:6"/>
    </vehicle>
    <vehicle id="397" depart="39.70">
        <route edges="3:1"/>
    </vehicle>
    <vehicle id="399" depart="39.90">
        <route edges="0:1 1:3 3:7"/>
    </vehicle>
    <vehicle id="401" depart="40.10">
        <route edges="3:1"/>
    </vehicle>
    <vehicle id="403" depart="40.30">
        <route edges="0:1 1:3 3:7"/>
    </vehicle>
    <vehicle id="406" depart="40.60">
        <route edges="7:3 3:1 1:0 0:2"/>
    </vehicle>
    <vehicle id="407" depart="40.70">
        <route edges="2:0 0:1 1:3"/>
    </vehicle>
    <vehicle id="408" depart="40.80">
        <route edges="1:0"/>
    </vehicle>
    <vehicle id="410" depart="41.00">
        <route edges="2:0 0:1 1:3 3:7"/>
    </vehicle>
    <vehicle id="414" depart="41.40">
        <route edges="2:0 0:1"/>
    </vehicle>
    <vehicle id="415" depart="41.50">
        <route edges="0:1 1:3 3:7"/>
    </vehicle>
    <vehicle id="416" depart="41.60">
        <route edges="7:3 3:1 1:0 0:2"/>
    </vehicle>
    <vehicle id="418" depart="41.80">
        <route edges="7:3 3:1 1:5 5:6"/>
    </vehicle>
    <vehicle id="419" depart="41.90">
        <route edges="7:3 3:1 1:5 5:6"/>
    </vehicle>
    <vehicle id="421" depart="42.10">
        <route edges="7:3 3:1 1:0"/>
    </vehicle>
    <vehicle id="422" depart="42.20">
        <route edges="0:1 1:5"/>
    </vehicle>
    <vehicle id="425" depart="42.50">
        <route edges="2:0 0:1 1:3 3:7"/>
    </vehicle>
    <vehicle id="428" depart="42.80">
        <route edges="1:3"/>
    </vehicle>
    <vehicle id="429" depart="42.90">
        <route edges="2:0 0:1 1:5"/>
    </vehicle>
    <vehicle id="433" depart="43.30">
        <route edges="2:0 0:1"/>
    </vehicle>
    <vehicle id="434" depart="43.40">
        <route edges="7:3 3:1 1:0"/>
    </vehicle>
    <vehicle id="435" depart="43.50">
        <route edges="7:3 3:1 1:0 0:2"/>
    </vehicle>
    <vehicle id="436" depart="43.60">
        <route edges="7:3 3:1 1:0"/>
    </vehicle>
    <vehicle id="438" depart="43.80">
        <route edges="5:1 1:0"/>
    </vehicle>
    <vehicle id="441" depart="44.10">
        <route edges="3:1 1:0 0:2"/>
    </vehicle>
    <vehicle id="443" depart="44.30">
        <route edges="1:5"/>
    </vehicle>
    <vehicle id="444" depart="44.40">
        <route edges="6:5 5:1 1:0 0:2"/>
    </vehicle>
    <vehicle id="445" depart="44.50">
        <route edges="2:0 0:1 1:3"/>
    </vehicle>
    <vehicle id="447" depart="44.70">
        <route edges="2:0 0:1 1:3 3:7"/>
    </vehicle>
    <vehicle id="448" depart="44.80">
        <route edges="3:1 1:0 0:2"/>
    </vehicle>
    <vehicle id="450" depart="45.00">
        <route edges="6:5 5:1 1:0 0:2"/>
    </vehicle>
    <vehicle id="451" depart="45.10">
        <route edges="2:0 0:1"/>
    </vehicle>
    <vehicle id="454" depart="45.40">
        <route edges="2:0 0:1 1:5 5:6"/>
    </vehicle>
    <vehicle id="455" depart="45.50">
        <route edges="3:1 1:0 0:2"/>
    </vehicle>
    <vehicle id="456" depart="45.60">
        <route edges="1:0 0:2"/>
    </vehicle>
    <vehicle id="459" depart="45.90">
        <route edges="5:1 1:3"/>
    </vehicle>
    <vehicle id="462" depart="46.20">
        <route edges="2:0 0:1 1:3 3:7"/>
    </vehicle>
    <vehicle id="463" depart="46.30">
        <route edges="6:5 5:1 1:3"/>
    </vehicle>
    <vehicle id="464" depart="46.40">
        <route edges="7:3 3:1"/>
    </vehicle>
    <vehicle id="466" depart="46.60">
        <route edges="7:3 3:1 1:0 0:2"/>
    </vehicle>
    <vehicle id="467" depart="46.70">
        <route edges="2:0 0:1 1:3"/>
    </vehicle>
    <vehicle id="468" depart="46.80">
        <route edges="6:5 5:1 1:0 0:2"/>
    </vehicle>
    <vehicle id="470" depart="47.00">
        <route edges="5:1 1:0"/>
    </vehicle>
    <vehicle id="471" depart="47.10">
        <route edges="2:0 0:1"/>
    </vehicle>
    <vehicle id="472" depart="47.20">
        <route edges="6:5 5:1 1:0"/>
    </vehicle>
    <vehicle id="474" depart="47.40">
        <route edges="5:1 1:0 0:2"/>
    </vehicle>
    <vehicle id="476" depart="47.60">
        <route edges="7:3 3:1 1:5"/>
    </vehicle>
    <vehicle id="477" depart="47.70">
        <route edges="7:3 3:1 1:5 5:6"/>
    </vehicle>
    <vehicle id="478" depart="47.80">
        <route edges="3:1 1:0 0:2"/>
    </vehicle>
    <vehicle id="479" depart="47.90">
        <route edges="2:0 0:1 1:5 5:6"/>
    </vehicle>
    <vehicle id="480" depart="48.00">
        <route edges="5:1 1:3"/>
    </vehicle>
    <vehicle id="484" depart="48.40">
        <route edges="0:1 1:3 3:7"/>
    </vehicle>
    <vehicle id="487" depart="48.70">
        <route edges="6:5 5:1 1:0 0:2"/>
    </vehicle>
    <vehicle id="489" depart="48.90">
        <route edges="5:1 1:3 3:7"/>
    </vehicle>
    <vehicle id="490" depart="49.00">
        <route edges="2:0 0:1 1:5 5:6"/>
    </vehicle>
    <vehicle id="491" depart="49.10">
        <route edges="2:0 0:1 1:3"/>
    </vehicle>
    <vehicle id="492" depart="49.20">
        <route edges="0:1"/>
    </vehicle>
    <vehicle id="493" depart="49.30">
        <route edges="0:1 1:3"/>
    </vehicle>
    <vehicle id="495" depart="49.50">
        <route edges="2:0 0:1 1:5 5:6"/>
    </vehicle>
    <vehicle id="496" depart="49.60">
        <route edges="7:3 3:1 1:0"/>
    </vehicle>
    <vehicle id="498" depart="49.80">
        <route edges="3:1 1:0 0:2"/>
    </vehicle>
    <vehicle id="499" depart="49.90">
        <route edges="6:5 5:1 1:0 0:2"/>
    </vehicle>
    <vehicle id="502" depart="50.20">
        <route edges="2:0 0:1 1:3 3:7"/>
    </vehicle>
    <vehicle id="503" depart="50.30">
        <route edges="7:3 3:1 1:0 0:2"/>
    </vehicle>
    <vehicle id="507" depart="50.70">
        <route edges="5:1 1:0 0:2"/>
    </vehicle>
    <vehicle id="508" depart="50.80">
        <route edges="0:1"/>
    </vehicle>
    <vehicle id="510" depart="51.00">
        <route edges="7:3 3:1 1:0"/>
    </vehicle>
    <vehicle id="511" depart="51.10">
        <route edges="7:3 3:1"/>
    </vehicle>
    <vehicle id="512" depart="51.20">
        <route edges="1:3 3:7"/>
    </vehicle>
    <vehicle id="513" depart="51.30">
        <route edges="7:3 3:1"/>
    </vehicle>
    <vehicle id="514" depart="51.40">
        <route edges="2:0 0:1 1:5 5:6"/>
    </vehicle>
    <vehicle id="515" depart="51.50">
        <route edges="0:1 1:3 3:7"/>
    </vehicle>
    <vehicle id="518" depart="51.80">
        <route edges="1:3 3:7"/>
    </vehicle>
    <vehicle id="519" depart="51.90">
        <route edges="2:0 0:1 1:3 3:7"/>
    </vehicle>
    <vehicle id="523" depart="52.30">
        <route edges="2:0 0:1 1:5 5:6"/>
    </vehicle>
    <vehicle id="524" depart="52.40">
        <route edges="7:3 3:1 1:0"/>
    </vehicle>
    <vehicle id="525" depart="52.50">
        <route edges="1:0 0:2"/>
    </vehicle>
    <vehicle id="527" depart="52.70">
        <route edges="2:0 0:1 1:3"/>
    </vehicle>
    <vehicle id="530" depart="53.00">
        <route edges="7:3 3:1"/>
    </vehicle>
    <vehicle id="532" depart="53.20">
        <route edges="2:0 0:1"/>
    </vehicle>
    <vehicle id="534" depart="53.40">
        <route edges="0:1 1:3 3:7"/>
    </vehicle>
    <vehicle id="537" depart="53.70">
        <route edges="7:3 3:1 1:5"/>
    </vehicle>
    <vehicle id="538" depart="53.80">
        <route edges="2:0 0:1"/>
    </vehicle>
    <vehicle id="540" depart="54.00">
        <route edges="2:0 0:1 1:3"/>
    </vehicle>
    <vehicle id="541" depart="54.10">
        <route edges="6:5 5:1 1:0"/>
    </vehicle>
    <vehicle id="544" depart="54.40">
        <route edges="2:0 0:1 1:3 3:7"/>
    </vehicle>
    <vehicle id="546" depart="54.60">
        <route edges="2:0 0:1 1:3"/>
    </vehicle>
    <vehicle id="547" depart="54.70">
        <route edges="2:0 0:1 1:3 3:7"/>
    </vehicle>
    <vehicle id="551" depart="55.10">
        <route edges="3:1 1:0 0:2"/>
    </vehicle>
    <vehicle id="552" depart="55.20">
        <route edges="7:3 3:1 1:0 0:2"/>
    </vehicle>
    <vehicle id="553" depart="55.30">
        <route edges="1:0"/>
    </vehicle>
    <vehicle id="554" depart="55.40">
        <route edges="2:0 0:1 1:3"/>
    </vehicle>
    <vehicle id="557" depart="55.70">
        <route edges="0:1 1:3 3:7"/>
    </vehicle>
    <vehicle id="559" depart="55.90">
        <route edges="2:0 0:1 1:3 3:7"/>
    </vehicle>
    <vehicle id="563" depart="56.30">
        <route edges="2:0 0:1"/>
    </vehicle>
    <vehicle id="565" depart="56.50">
        <route edges="0:1 1:3"/>
    </vehicle>
    <vehicle id="566" depart="56.60">
        <route edges="6:5 5:1 1:3 3:7"/>
    </vehicle>
    <vehicle id="568" depart="56.80">
        <route edges="2:0 0:1 1:3 3:7"/>
    </vehicle>
    <vehicle id="569" depart="56.90">
        <route edges="2:0 0:1 1:5 5:6"/>
    </vehicle>
    <vehicle id="571" depart="57.10">
        <route edges="1:0 0:2"/>
    </vehicle>
    <vehicle id="572" depart="57.20">
        <route edges="7:3 3:1 1:5 5:6"/>
    </vehicle>
    <vehicle id="573" depart="57.30">
        <route edges="2:0 0:1 1:3 3:7"/>
    </vehicle>
    <vehicle id="574" depart="57.40">
        <route edges="7:3 3:1 1:0 0:2"/>
    </vehicle>
    <vehicle id="575" depart="57.50">
        <route edges="1:0 0:2"/>
    </vehicle>
    <vehicle id="578" depart="57.80">
        <route edges="7:3 3:1 1:5 5:6"/>
    </vehicle>
    <vehicle id="579" depart="57.90">
        <route edges="5:1 1:0 0:2"/>
    </vehicle>
    <vehicle id="585" depart="58.50">
        <route edges="1:5 5:6"/>
    </vehicle>
    <vehicle id="587" depart="58.70">
        <route edges="3:1 1:0 0:2"/>
    </vehicle>
    <vehicle id="590" depart="59.00">
        <route edges="2:0 0:1 1:3"/>
    </vehicle>
    <vehicle id="591" depart="59.10">
        <route edges="3:1 1:5 5:6"/>
    </vehicle>
    <vehicle id="592" depart="59.20">
        <route edges="1:3"/>
    </vehicle>
    <vehicle id="593" depart="59.30">
        <route edges="0:1 1:3 3:7"/>
    </vehicle>
    <vehicle id="594" depart="59.40">
        <route edges="1:0 0:2"/>
    </vehicle>
    <vehicle id="595" depart="59.50">
        <route edges="7:3 3:1"/>
    </vehicle>
    <vehicle id="596" depart="59.60">
        <route edges="0:1 1:5 5:6"/>
    </vehicle>
    <vehicle id="597" depart="59.70">
        <route edges="7:3 3:1"/>
    </vehicle>
    <vehicle id="598" depart="59.80">
        <route edges="2:0 0:1 1:3 3:7"/>
    </vehicle>
    <vehicle id="599" depart="59.90">
        <route edges="1:0"/>
    </vehicle>
    <vehicle id="602" depart="60.20">
        <route edges="7:3 3:1 1:0 0:2"/>
    </vehicle>
    <vehicle id="603" depart="60.30">
        <route edges="3:1 1:5 5:6"/>
    </vehicle>
    <vehicle id="604" depart="60.40">
        <route edges="2:0 0:1 1:3"/>
    </vehicle>
    <vehicle id="606" depart="60.60">
        <route edges="5:1 1:0 0:2"/>
    </vehicle>
    <vehicle id="608" depart="60.80">
        <route edges="6:5 5:1 1:3 3:7"/>
    </vehicle>
    <vehicle id="609" depart="60.90">
        <route edges="7:3 3:1 1:0 0:2"/>
    </vehicle>
    <vehicle id="610" depart="61.00">
        <route edges="3:1 1:0 0:2"/>
    </vehicle>
    <vehicle id="611" depart="61.10">
        <route edges="5:1 1:3 3:7"/>
    </vehicle>
    <vehicle id="612" depart="61.20">
        <route edges="5:1 1:0 0:2"/>
    </vehicle>
    <vehicle id="613" depart="61.30">
        <route edges="1:0"/>
    </vehicle>
    <vehicle id="615" depart="61.50">
        <route edges="5:1 1:0 0:2"/>
    </vehicle>
    <vehicle id="616" depart="61.60">
        <route edges="1:5 5:6"/>
    </vehicle>
    <vehicle id="619" depart="61.90">
        <route edges="1:3 3:7"/>
    </vehicle>
    <vehicle id="620" depart="62.00">
        <route edges="5:1 1:3 3:7"/>
    </vehicle>
    <vehicle id="621" depart="62.10">
        <route edges="3:1 1:5 5:6"/>
    </vehicle>
    <vehicle id="622" depart="62.20">
        <route edges="2:0 0:1 1:5 5:6"/>
    </vehicle>
    <vehicle id="623" depart="62.30">
        <route edges="1:0 0:2"/>