<?xml version="1.0" encoding="UTF-8"?>

<!-- generated on Thu Feb 13 12:39:31 2014 by SUMO duarouter Version 0.18.0
<?xml version="1.0" encoding="UTF-8"?>

<configuration xmlns:xsi="http://www.w3.org/2001/XMLSchema-instance" xsi:noNamespaceSchemaLocation="http://sumo.sf.net/xsd/duarouterConfiguration.xsd">

    <input>
        <net-file value="simpleT.net.xml"/>
        <trip-files value="experimentos/simpleT.p0.7.3.trips.xml"/>
    </input>

    <output>
        <output-file value="experimentos/simpleT.p0.7.3.rou.xml"/>
    </output>

    <processing>
        <ignore-errors value="true"/>
    </processing>

    <random_number>
        <random value="true"/>
    </random_number>

</configuration>
-->

<routes xmlns:xsi="http://www.w3.org/2001/XMLSchema-instance" xsi:noNamespaceSchemaLocation="http://sumo.sf.net/xsd/routes_file.xsd">
    <vehicle id="0" depart="0.00">
        <route edges="2:0 0:1"/>
    </vehicle>
    <vehicle id="2" depart="1.40">
        <route edges="0:1 1:5"/>
    </vehicle>
    <vehicle id="3" depart="2.10">
        <route edges="2:0 0:1 1:3 3:7"/>
    </vehicle>
    <vehicle id="5" depart="3.50">
        <route edges="5:1 1:3"/>
    </vehicle>
    <vehicle id="10" depart="7.00">
        <route edges="1:0 0:2"/>
    </vehicle>
    <vehicle id="11" depart="7.70">
        <route edges="2:0 0:1 1:3 3:7"/>
    </vehicle>
    <vehicle id="17" depart="11.90">
        <route edges="7:3 3:1 1:0 0:2"/>
    </vehicle>
    <vehicle id="20" depart="14.00">
        <route edges="0:1 1:3"/>
    </vehicle>
    <vehicle id="21" depart="14.70">
        <route edges="0:1"/>
    </vehicle>
    <vehicle id="22" depart="15.40">
        <route edges="2:0 0:1 1:3 3:7"/>
    </vehicle>
    <vehicle id="23" depart="16.10">
        <route edges="2:0 0:1 1:3 3:7"/>
    </vehicle>
    <vehicle id="30" depart="21.00">
        <route edges="7:3 3:1 1:0 0:2"/>
    </vehicle>
    <vehicle id="31" depart="21.70">
        <route edges="2:0 0:1 1:3 3:7"/>
    </vehicle>
    <vehicle id="32" depart="22.40">
        <route edges="7:3 3:1 1:0 0:2"/>
    </vehicle>
    <vehicle id="35" depart="24.50">
        <route edges="2:0 0:1 1:3"/>
    </vehicle>
    <vehicle id="37" depart="25.90">
        <route edges="1:3 3:7"/>
    </vehicle>
    <vehicle id="39" depart="27.30">
        <route edges="2:0 0:1 1:3 3:7"/>
    </vehicle>
    <vehicle id="40" depart="28.00">
        <route edges="0:1"/>
    </vehicle>
    <vehicle id="41" depart="28.70">
        <route edges="3:1 1:0 0:2"/>
    </vehicle>
    <vehicle id="42" depart="29.40">
        <route edges="6:5 5:1 1:0 0:2"/>
    </vehicle>
    <vehicle id="43" depart="30.10">
        <route edges="3:1 1:0 0:2"/>
    </vehicle>
    <vehicle id="44" depart="30.80">
        <route edges="7:3 3:1 1:0 0:2"/>
    </vehicle>
    <vehicle id="45" depart="31.50">
        <route edges="1:3"/>
    </vehicle>
    <vehicle id="49" depart="34.30">
        <route edges="7:3 3:1"/>
    </vehicle>
    <vehicle id="50" depart="35.00">
        <route edges="7:3 3:1 1:0"/>
    </vehicle>
    <vehicle id="52" depart="36.40">
        <route edges="2:0 0:1 1:3 3:7"/>
    </vehicle>
    <vehicle id="55" depart="38.50">
        <route edges="5:1 1:3 3:7"/>
    </vehicle>
    <vehicle id="56" depart="39.20">
        <route edges="3:1 1:5 5:6"/>
    </vehicle>
    <vehicle id="57" depart="39.90">
        <route edges="7:3 3:1"/>
    </vehicle>
    <vehicle id="59" depart="41.30">
        <route edges="7:3 3:1 1:0 0:2"/>
    </vehicle>
    <vehicle id="60" depart="42.00">
        <route edges="1:3 3:7"/>
    </vehicle>
    <vehicle id="61" depart="42.70">
        <route edges="7:3 3:1 1:0 0:2"/>
    </vehicle>
    <vehicle id="63" depart="44.10">
        <route edges="0:1"/>
    </vehicle>
    <vehicle id="64" depart="44.80">
        <route edges="2:0 0:1 1:5 5:6"/>
    </vehicle>
    <vehicle id="65" depart="45.50">
        <route edges="2:0 0:1 1:5 5:6"/>
    </vehicle>
    <vehicle id="66" depart="46.20">
        <route edges="2:0 0:1"/>
    </vehicle>
    <vehicle id="74" depart="51.80">
        <route edges="7:3 3:1 1:0"/>
    </vehicle>
    <vehicle id="78" depart="54.60">
        <route edges="6:5 5:1"/>
    </vehicle>
    <vehicle id="81" depart="56.70">
        <route edges="2:0 0:1 1:3 3:7"/>
    </vehicle>
    <vehicle id="82" depart="57.40">
        <route edges="3:1 1:0 0:2"/>
    </vehicle>
    <vehicle id="87" depart="60.90">
        <route edges="3:1 1:0 0:2"/>
    </vehicle>
    <vehicle id="90" depart="63.00">
        <route edges="1:5 5:6"/>
    </vehicle>
    <vehicle id="92" depart="64.40">
        <route edges="1:0 0:2"/>
    </vehicle>
    <vehicle id="96" depart="67.20">
        <route edges="7:3 3:1"/>
    </vehicle>
    <vehicle id="97" depart="67.90">
        <route edges="7:3 3:1 1:0"/>
    </vehicle>
    <vehicle id="98" depart="68.60">
        <route edges="5:1 1:0 0:2"/>
    </vehicle>
    <vehicle id="100" depart="70.00">
        <route edges="7:3 3:1 1:0 0:2"/>
    </vehicle>
    <vehicle id="101" depart="70.70">
        <route edges="7:3 3:1 1:0"/>
    </vehicle>
    <vehicle id="103" depart="72.10">
        <route edges="7:3 3:1 1:0"/>
    </vehicle>
    <vehicle id="104" depart="72.80">
        <route edges="0:1 1:3"/>
    </vehicle>
    <vehicle id="106" depart="74.20">
        <route edges="6:5 5:1"/>
    </vehicle>
    <vehicle id="108" depart="75.60">
        <route edges="7:3 3:1 1:0 0:2"/>
    </vehicle>
    <vehicle id="112" depart="78.40">
        <route edges="2:0 0:1 1:3 3:7"/>
    </vehicle>
    <vehicle id="113" depart="79.10">
        <route edges="3:1 1:0 0:2"/>
    </vehicle>
    <vehicle id="116" depart="81.20">
        <route edges="2:0 0:1 1:3 3:7"/>
    </vehicle>
    <vehicle id="117" depart="81.90">
        <route edges="6:5 5:1 1:3 3:7"/>
    </vehicle>
    <vehicle id="118" depart="82.60">
        <route edges="0:1 1:3"/>
    </vehicle>
    <vehicle id="119" depart="83.30">
        <route edges="3:1"/>
    </vehicle>
    <vehicle id="120" depart="84.00">
        <route edges="7:3 3:1 1:0 0:2"/>
    </vehicle>
    <vehicle id="122" depart="85.40">
        <route edges="7:3 3:1 1:0 0:2"/>
    </vehicle>
    <vehicle id="123" depart="86.10">
        <route edges="7:3 3:1 1:5"/>
    </vehicle>
    <vehicle id="125" depart="87.50">
        <route edges="3:1 1:0 0:2"/>
    </vehicle>
    <vehicle id="129" depart="90.30">
        <route edges="2:0 0:1 1:3 3:7"/>
    </vehicle>
    <vehicle id="131" depart="91.70">
        <route edges="1:3 3:7"/>
    </vehicle>
    <vehicle id="133" depart="93.10">
        <route edges="3:1 1:0"/>
    </vehicle>
    <vehicle id="134" depart="93.80">
        <route edges="1:3 3:7"/>
    </vehicle>
    <vehicle id="137" depart="95.90">
        <route edges="5:1 1:3 3:7"/>
    </vehicle>
    <vehicle id="138" depart="96.60">
        <route edges="7:3 3:1 1:0 0:2"/>
    </vehicle>
    <vehicle id="139" depart="97.30">
        <route edges="5:1 1:3 3:7"/>
    </vehicle>
    <vehicle id="140" depart="98.00">
        <route edges="7:3 3:1 1:0 0:2"/>
    </vehicle>
    <vehicle id="141" depart="98.70">
        <route edges="1:3 3:7"/>
    </vehicle>
    <vehicle id="142" depart="99.40">
        <route edges="1:3 3:7"/>
    </vehicle>
    <vehicle id="144" depart="100.80">
        <route edges="6:5 5:1 1:0"/>
    </vehicle>
    <vehicle id="146" depart="102.20">
        <route edges="7:3 3:1"/>
    </vehicle>
    <vehicle id="147" depart="102.90">
        <route edges="2:0 0:1"/>
    </vehicle>
    <vehicle id="148" depart="103.60">
        <route edges="6:5 5:1 1:0"/>
    </vehicle>
    <vehicle id="151" depart="105.70">
        <route edges="5:1 1:3 3:7"/>
    </vehicle>
    <vehicle id="152" depart="106.40">
        <route edges="6:5 5:1 1:0 0:2"/>
    </vehicle>
    <vehicle id="153" depart="107.10">
        <route edges="2:0 0:1"/>
    </vehicle>
    <vehicle id="155" depart="108.50">
        <route edges="6:5 5:1"/>
    </vehicle>
    <vehicle id="156" depart="109.20">
        <route edges="6:5 5:1 1:3 3:7"/>
    </vehicle>
    <vehicle id="159" depart="111.30">
        <route edges="1:0 0:2"/>
    </vehicle>
    <vehicle id="160" depart="112.00">
        <route edges="3:1"/>
    </vehicle>
    <vehicle id="161" depart="112.70">
        <route edges="2:0 0:1 1:5"/>
    </vehicle>
    <vehicle id="162" depart="113.40">
        <route edges="5:1 1:0 0:2"/>
    </vehicle>
    <vehicle id="168" depart="117.60">
        <route edges="3:1 1:0"/>
    </vehicle>
    <vehicle id="169" depart="118.30">
        <route edges="1:0"/>
    </vehicle>
    <vehicle id="172" depart="120.40">
        <route edges="7:3 3:1 1:0 0:2"/>
    </vehicle>
    <vehicle id="174" depart="121.80">
        <route edges="2:0 0:1 1:3 3:7"/>
    </vehicle>
    <vehicle id="181" depart="126.70">
        <route edges="2:0 0:1 1:3 3:7"/>
    </vehicle>
    <vehicle id="182" depart="127.40">
        <route edges="1:3"/>
    </vehicle>
    <vehicle id="183" depart="128.10">
        <route edges="7:3 3:1 1:5"/>
    </vehicle>
    <vehicle id="187" depart="130.90">
        <route edges="1:0 0:2"/>
    </vehicle>
    <vehicle id="188" depart="131.60">
        <route edges="7:3 3:1 1:0 0:2"/>
    </vehicle>
    <vehicle id="194" depart="135.80">
        <route edges="7:3 3:1 1:0 0:2"/>
    </vehicle>
    <vehicle id="199" depart="139.30">
        <route edges="7:3 3:1 1:0"/>
    </vehicle>
    <vehicle id="200" depart="140.00">
        <route edges="6:5 5:1 1:0"/>
    </vehicle>
    <vehicle id="202" depart="141.40">
        <route edges="7:3 3:1 1:0"/>
    </vehicle>
    <vehicle id="204" depart="142.80">
        <route edges="6:5 5:1 1:0"/>
    </vehicle>
    <vehicle id="207" depart="144.90">
        <route edges="7:3 3:1 1:0"/>
    </vehicle>
    <vehicle id="209" depart="146.30">
        <route edges="6:5 5:1"/>
    </vehicle>
    <vehicle id="210" depart="147.00">
        <route edges="1:3"/>
    </vehicle>
    <vehicle id="214" depart="149.80">
        <route edges="6:5 5:1"/>
    </vehicle>
    <vehicle id="217" depart="151.90">
        <route edges="7:3 3:1 1:0"/>
    </vehicle>
    <vehicle id="218" depart="152.60">
        <route edges="2:0 0:1 1:3 3:7"/>
    </vehicle>
    <vehicle id="221" depart="154.70">
        <route edges="7:3 3:1 1:5 5:6"/>
    </vehicle>
    <vehicle id="222" depart="155.40">
        <route edges="6:5 5:1 1:0"/>
    </vehicle>
    <vehicle id="223" depart="156.10">
        <route edges="7:3 3:1"/>
    </vehicle>
    <vehicle id="228" depart="159.60">
        <route edges="5:1 1:0 0:2"/>
    </vehicle>
    <vehicle id="229" depart="160.30">
        <route edges="2:0 0:1 1:3 3:7"/>
    </vehicle>
    <vehicle id="230" depart="161.00">
        <route edges="1:5 5:6"/>
    </vehicle>
    <vehicle id="233" depart="163.10">
        <route edges="3:1 1:0"/>
    </vehicle>
    <vehicle id="235" depart="164.50">
        <route edges="7:3 3:1"/>
    </vehicle>
    <vehicle id="238" depart="166.60">
        <route edges="7:3 3:1 1:0"/>
    </vehicle>
    <vehicle id="239" depart="167.30">
        <route edges="2:0 0:1 1:3 3:7"/>
    </vehicle>
    <vehicle id="241" depart="168.70">
        <route edges="6:5 5:1 1:3 3:7"/>
    </vehicle>
    <vehicle id="242" depart="169.40">
        <route edges="6:5 5:1 1:0 0:2"/>
    </vehicle>
    <vehicle id="243" depart="170.10">
        <route edges="2:0 0:1 1:3 3:7"/>
    </vehicle>
    <vehicle id="245" depart="171.50">
        <route edges="5:1 1:3 3:7"/>
    </vehicle>
    <vehicle id="246" depart="172.20">
        <route edges="7:3 3:1 1:0 0:2"/>
    </vehicle>
    <vehicle id="250" depart="175.00">
        <route edges="1:0 0:2"/>
    </vehicle>
    <vehicle id="251" depart="175.70">
        <route edges="2:0 0:1 1:5 5:6"/>
    </vehicle>
    <vehicle id="253" depart="177.10">
        <route edges="6:5 5:1 1:0 0:2"/>
    </vehicle>
    <vehicle id="255" depart="178.50">
        <route edges="7:3 3:1 1:0"/>
    </vehicle>
    <vehicle id="258" depart="180.60">
        <route edges="5:1 1:3"/>
    </vehicle>
    <vehicle id="259" depart="181.30">
        <route edges="2:0 0:1 1:3"/>
    </vehicle>
    <vehicle id="261" depart="182.70">
        <route edges="2:0 0:1 1:3"/>
    </vehicle>
    <vehicle id="263" depart="184.10">
        <route edges="7:3 3:1"/>
    </vehicle>
    <vehicle id="268" depart="187.60">
        <route edges="2:0 0:1 1:3 3:7"/>
    </vehicle>
    <vehicle id="270" depart="189.00">
        <route edges="1:0 0:2"/>
    </vehicle>
    <vehicle id="272" depart="190.40">
        <route edges="5:1 1:3"/>
    </vehicle>
    <vehicle id="274" depart="191.80">
        <route edges="7:3 3:1 1:0 0:2"/>
    </vehicle>
    <vehicle id="276" depart="193.20">
        <route edges="7:3 3:1 1:0 0:2"/>
    </vehicle>
    <vehicle id="278" depart="194.60">
        <route edges="1:3"/>
    </vehicle>
    <vehicle id="282" depart="197.40">
        <route edges="6:5 5:1 1:3"/>
    </vehicle>
    <vehicle id="283" depart="198.10">
        <route edges="2:0 0:1 1:3 3:7"/>
    </vehicle>
    <vehicle id="284" depart="198.80">
        <route edges="6:5 5:1 1:3 3:7"/>
    </vehicle>
    <vehicle id="287" depart="200.90">
        <route edges="0:1 1:3"/>
    </vehicle>
    <vehicle id="288" depart="201.60">
        <route edges="1:5 5:6"/>
    </vehicle>
    <vehicle id="289" depart="202.30">
        <route edges="7:3 3:1 1:0"/>
    </vehicle>
    <vehicle id="290" depart="203.00">
        <route edges="6:5 5:1 1:0"/>
    </vehicle>
    <vehicle id="291" depart="203.70">
        <route edges="7:3 3:1"/>
    </vehicle>
    <vehicle id="296" depart="207.20">
        <route edges="3:1 1:5 5:6"/>
    </vehicle>
    <vehicle id="304" depart="212.80">
        <route edges="2:0 0:1 1:3"/>
    </vehicle>
    <vehicle id="306" depart="214.20">
        <route edges="7:3 3:1 1:5 5:6"/>
    </vehicle>
    <vehicle id="307" depart="214.90">
        <route edges="5:1 1:0 0:2"/>
    </vehicle>
    <vehicle id="310" depart="217.00">
        <route edges="2:0 0:1 1:5 5:6"/>
    </vehicle>
    <vehicle id="312" depart="218.40">
        <route edges="7:3 3:1 1:5"/>
    </vehicle>
    <vehicle id="314" depart="219.80">
        <route edges="3:1 1:0"/>
    </vehicle>
    <vehicle id="315" depart="220.50">
        <route edges="2:0 0:1 1:3 3:7"/>
    </vehicle>
    <vehicle id="321" depart="224.70">
        <route edges="7:3 3:1 1:0 0:2"/>
    </vehicle>
    <vehicle id="325" depart="227.50">
        <route edges="7:3 3:1 1:0 0:2"/>
    </vehicle>
    <vehicle id="326" depart="228.20">
        <route edges="2:0 0:1 1:5"/>
    </vehicle>
    <vehicle id="329" depart="230.30">
        <route edges="7:3 3:1 1:0 0:2"/>
    </vehicle>
    <vehicle id="330" depart="231.00">
        <route edges="1:0 0:2"/>
    </vehicle>
    <vehicle id="332" depart="232.40">
        <route edges="6:5 5:1 1:3 3:7"/>
    </vehicle>
    <vehicle id="334" depart="233.80">
        <route edges="6:5 5:1 1:0 0:2"/>
    </vehicle>
    <vehicle id="335" depart="234.50">
        <route edges="2:0 0:1 1:3"/>
    </vehicle>
    <vehicle id="337" depart="235.90">
        <route edges="1:3 3:7"/>
    </vehicle>
    <vehicle id="339" depart="237.30">
        <route edges="1:3 3:7"/>
    </vehicle>
    <vehicle id="342" depart="239.40">
        <route edges="6:5 5:1 1:3 3:7"/>
    </vehicle>
    <vehicle id="343" depart="240.10">
        <route edges="0:1 1:5 5:6"/>
    </vehicle>
    <vehicle id="344" depart="240.80">
        <route edges="2:0 0:1 1:3 3:7"/>
    </vehicle>
    <vehicle id="346" depart="242.20">
        <route edges="1:3 3:7"/>
    </vehicle>
    <vehicle id="347" depart="242.90">
        <route edges="1:0 0:2"/>
    </vehicle>
    <vehicle id="348" depart="243.60">
        <route edges="1:3 3:7"/>
    </vehicle>
    <vehicle id="351" depart="245.70">
        <route edges="5:1 1:0"/>
    </vehicle>
    <vehicle id="353" depart="247.10">
        <route edges="2:0 0:1 1:5"/>
    </vehicle>
    <vehicle id="354" depart="247.80">
        <route edges="1:3 3:7"/>
    </vehicle>
    <vehicle id="355" depart="248.50">
        <route edges="1:0 0:2"/>
    </vehicle>
    <vehicle id="356" depart="249.20">
        <route edges="6:5 5:1"/>
    </vehicle>
    <vehicle id="358" depart="250.60">
        <route edges="7:3 3:1 1:0 0:2"/>
    </vehicle>
    <vehicle id="359" depart="251.30">
        <route edges="0:1 1:3"/>
    </vehicle>
    <vehicle id="360" depart="252.00">
        <route edges="5:1 1:3 3:7"/>
    </vehicle>
    <vehicle id="361" depart="252.70">
        <route edges="7:3 3:1 1:5 5:6"/>
    </vehicle>
    <vehicle id="362" depart="253.40">
        <route edges="1:0 0:2"/>
    </vehicle>
    <vehicle id="364" depart="254.80">
        <route edges="6:5 5:1 1:0"/>
    </vehicle>
    <vehicle id="365" depart="255.50">
        <route edges="2:0 0:1 1:3"/>
    </vehicle>
    <vehicle id="368" depart="257.60">
        <route edges="3:1 1:0 0:2"/>
    </vehicle>
    <vehicle id="369" depart="258.30">
        <route edges="2:0 0:1 1:3 3:7"/>
    </vehicle>
    <vehicle id="371" depart="259.70">
        <route edges="7:3 3:1"/>
    </vehicle>
    <vehicle id="373" depart="261.10">
        <route edges="6:5 5:1 1:3 3:7"/>
    </vehicle>
    <vehicle id="374" depart="261.80">
        <route edges="6:5 5:1 1:3"/>
    </vehicle>
    <vehicle id="378" depart="264.60">
        <route edges="7:3 3:1"/>
    </vehicle>
    <vehicle id="381" depart="266.70">
        <route edges="2:0 0:1 1:3 3:7"/>
    </vehicle>
    <vehicle id="383" depart="268.10">
        <route edges="0:1 1:5 5:6"/>
    </vehicle>
    <vehicle id="384" depart="268.80">
        <route edges="5:1"/>
    </vehicle>
    <vehicle id="385" depart="269.50">
        <route edges="0:1 1:3 3:7"/>
    </vehicle>
    <vehicle id="389" depart="272.30">
        <route edges="5:1 1:3 3:7"/>
    </vehicle>
    <vehicle id="390" depart="273.00">
        <route edges="0:1 1:5 5:6"/>
    </vehicle>
    <vehicle id="391" depart="273.70">
        <route edges="2:0 0:1"/>
    </vehicle>
    <vehicle id="392" depart="274.40">
        <route edges="2:0 0:1"/>
    </vehicle>
    <vehicle id="394" depart="275.80">
        <route edges="7:3 3:1"/>
    </vehicle>
    <vehicle id="395" depart="276.50">
        <route edges="2:0 0:1 1:3 3:7"/>
    </vehicle>
    <vehicle id="396" depart="277.20">
        <route edges="2:0 0:1 1:3 3:7"/>
    </vehicle>
    <vehicle id="397" depart="277.90">
        <route edges="6:5 5:1 1:3"/>
    </vehicle>
    <vehicle id="398" depart="278.60">
        <route edges="7:3 3:1 1:5"/>
    </vehicle>
    <vehicle id="400" depart="280.00">
        <route edges="2:0 0:1 1:3"/>
    </vehicle>
    <vehicle id="401" depart="280.70">
        <route edges="0:1 1:5 5:6"/>
    </vehicle>
    <vehicle id="402" depart="281.40">
        <route edges="2:0 0:1 1:5 5:6"/>
    </vehicle>
    <vehicle id="405" depart="283.50">
        <route edges="0:1 1:5 5:6"/>
    </vehicle>
    <vehicle id="406" depart="284.20">
        <route edges="6:5 5:1 1:3"/>
    </vehicle>
    <vehicle id="407" depart="284.90">
        <route edges="2:0 0:1 1:3 3:7"/>
    </vehicle>
    <vehicle id="408" depart="285.60">
        <route edges="7:3 3:1 1:0 0:2"/>
    </vehicle>
    <vehicle id="410" depart="287.00">
        <route edges="2:0 0:1"/>
    </vehicle>
    <vehicle id="414" depart="289.80">
        <route edges="1:3 3:7"/>
    </vehicle>
    <vehicle id="415" depart="290.50">
        <route edges="3:1 1:0"/>
    </vehicle>
    <vehicle id="417" depart="291.90">
        <route edges="7:3 3:1 1:0"/>
    </vehicle>
    <vehicle id="418" depart="292.60">
        <route edges="1:0"/>
    </vehicle>
    <vehicle id="419" depart="293.30">
        <route edges="2:0 0:1 1:3 3:7"/>
    </vehicle>
    <vehicle id="420" depart="294.00">
        <route edges="2:0 0:1"/>
    </vehicle>
    <vehicle id="422" depart="295.40">
        <route edges="5:1 1:0 0:2"/>
    </vehicle>
    <vehicle id="424" depart="296.80">
        <route edges="1:3"/>
    </vehicle>
    <vehicle id="425" depart="297.50">
        <route edges="7:3 3:1 1:0 0:2"/>
    </vehicle>
    <vehicle id="426" depart="298.20">
        <route edges="6:5 5:1 1:0"/>
    </vehicle>
    <vehicle id="427" depart="298.90">
        <route edges="7:3 3:1 1:0"/>
    </vehicle>
    <vehicle id="429" depart="300.30">
        <route edges="7:3 3:1 1:5"/>
    </vehicle>
    <vehicle id="430" depart="301.00">
        <route edges="3:1 1:5 5:6"/>
    </vehicle>
    <vehicle id="432" depart="302.40">
        <route edges="3:1 1:5 5:6"/>
    </vehicle>
    <vehicle id="433" depart="303.10">
        <route edges="6:5 5:1 1:0 0:2"/>
    </vehicle>
    <vehicle id="434" depart="303.80">
        <route edges="2:0 0:1 1:3 3:7"/>
    </vehicle>
    <vehicle id="435" depart="304.50">
        <route edges="1:0"/>
    </vehicle>
    <vehicle id="438" depart="306.60">
        <route edges="2:0 0:1"/>
    </vehicle>
    <vehicle id="444" depart="310.80">
        <route edges="7:3 3:1 1:0 0:2"/>
    </vehicle>
    <vehicle id="447" depart="312.90">
        <route edges="7:3 3:1 1:5"/>
    </vehicle>
    <vehicle id="449" depart="314.30">
        <route edges="2:0 0:1 1:3"/>
    </vehicle>
    <vehicle id="450" depart="315.00">
        <route edges="6:5 5:1 1:0 0:2"/>
    </vehicle>
    <vehicle id="451" depart="315.70">
        <route edges="7:3 3:1 1:0 0:2"/>
    </vehicle>
    <vehicle id="455" depart="318.50">
        <route edges="7:3 3:1 1:0 0:2"/>
    </vehicle>
    <vehicle id="459" depart="321.30">
        <route edges="7:3 3:1"/>
    </vehicle>
    <vehicle id="460" depart="322.00">
        <route edges="6:5 5:1 1:3"/>
    </vehicle>
    <vehicle id="462" depart="323.40">
        <route edges="6:5 5:1 1:0"/>
    </vehicle>
    <vehicle id="463" depart="324.10">
        <route edges="1:0 0:2"/>
    </vehicle>
    <vehicle id="464" depart="324.80">
        <route edges="7:3 3:1 1:0 0:2"/>
    </vehicle>
    <vehicle id="465" depart="325.50">
        <route edges="5:1 1:0 0:2"/>
    </vehicle>
    <vehicle id="466" depart="326.20">
        <route edges="2:0 0:1"/>
    </vehicle>
    <vehicle id="468" depart="327.60">
        <route edges="7:3 3:1 1:0 0:2"/>
    </vehicle>
    <vehicle id="471" depart="329.70">
        <route edges="3:1 1:0"/>
    </vehicle>
    <vehicle id="472" depart="330.40">
        <route edges="0:1 1:3 3:7"/>
    </vehicle>
    <vehicle id="475" depart="332.50">
        <route edges="3:1 1:0 0:2"/>
    </vehicle>
    <vehicle id="478" depart="334.60">
        <route edges="7:3 3:1 1:0 0:2"/>
    </vehicle>
    <vehicle id="479" depart="335.30">
        <route edges="6:5 5:1 1:3"/>
    </vehicle>
    <vehicle id="481" depart="336.70">
        <route edges="2:0 0:1 1:3"/>
    </vehicle>
    <vehicle id="482" depart="337.40">
        <route edges="3:1 1:0 0:2"/>
    </vehicle>
    <vehicle id="483" depart="338.10">
        <route edges="1:3 3:7"/>
    </vehicle>
    <vehicle id="484" depart="338.80">
        <route edges="0:1 1:3"/>
    </vehicle>
    <vehicle id="487" depart="340.90">
        <route edges="3:1 1:0"/>
    </vehicle>
    <vehicle id="490" depart="343.00">
        <route edges="3:1"/>
    </vehicle>
    <vehicle id="491" depart="343.70">
        <route edges="0:1 1:3"/>
    </vehicle>
    <vehicle id="496" depart="347.20">
        <route edges="6:5 5:1 1:0 0:2"/>
    </vehicle>
    <vehicle id="498" depart="348.60">
        <route edges="2:0 0:1 1:3 3:7"/>
    </vehicle>
    <vehicle id="499" depart="349.30">
        <route edges="3:1 1:5"/>
    </vehicle>
    <vehicle id="500" depart="350.00">
        <route edges="1:3"/>
    </vehicle>
    <vehicle id="501" depart="350.70">
        <route edges="1:3 3:7"/>
    </vehicle>
    <vehicle id="502" depart="351.40">
        <route edges="2:0 0:1"/>
    </vehicle>
    <vehicle id="503" depart="352.10">
        <route edges="2:0 0:1 1:5"/>
    </vehicle>
    <vehicle id="505" depart="353.50">
        <route edges="1:3 3:7"/>
    </vehicle>
    <vehicle id="507" depart="354.90">
        <route edges="2:0 0:1 1:3 3:7"/>
    </vehicle>
    <vehicle id="509" depart="356.30">
        <route edges="1:3"/>
    </vehicle>
    <vehicle id="510" depart="357.00">
        <route edges="2:0 0:1"/>
    </vehicle>
    <vehicle id="515" depart="360.50">
        <route edges="1:3"/>
    </vehicle>
    <vehicle id="517" depart="361.90">
        <route edges="1:3 3:7"/>
    </vehicle>
    <vehicle id="520" depart="364.00">
        <route edges="7:3 3:1"/>
    </vehicle>
    <vehicle id="521" depart="364.70">
        <route edges="2:0 0:1 1:3"/>
    </vehicle>
    <vehicle id="522" depart="365.40">
        <route edges="2:0 0:1 1:3 3:7"/>
    </vehicle>
    <vehicle id="526" depart="368.20">
        <route edges="6:5 5:1 1:3 3:7"/>
    </vehicle>
    <vehicle id="527" depart="368.90">
        <route edges="7:3 3:1 1:5 5:6"/>
    </vehicle>
    <vehicle id="528" depart="369.60">
        <route edges="1:0 0:2"/>
    </vehicle>
    <vehicle id="529" depart="370.30">
        <route edges="2:0 0:1 1:5"/>
    </vehicle>
    <vehicle id="530" depart="371.00">
        <route edges="2:0 0:1 1:5 5:6"/>
    </vehicle>
    <vehicle id="534" depart="373.80">
        <route edges="1:0"/>
    </vehicle>
    <vehicle id="535" depart="374.50">
        <route edges="2:0 0:1 1:5"/>
    </vehicle>
    <vehicle id="543" depart="380.10">
        <route edges="6:5 5:1 1:3 3:7"/>
    </vehicle>
    <vehicle id="544" depart="380.80">
        <route edges="7:3 3:1"/>
    </vehicle>
    <vehicle id="548" depart="383.60">
        <route edges="7:3 3:1 1:0 0:2"/>
    </vehicle>
    <vehicle id="554" depart="387.80">
        <route edges="5:1 1:0 0:2"/>
    </vehicle>
    <vehicle id="559" depart="391.30">
        <route edges="6:5 5:1 1:3"/>
    </vehicle>
    <vehicle id="560" depart="392.00">
        <route edges="1:0 0:2"/>
    </vehicle>
    <vehicle id="567" depart="396.90">
        <route edges="1:0 0:2"/>
    </vehicle>
    <vehicle id="569" depart="398.30">
        <route edges="6:5 5:1 1:0 0:2"/>
    </vehicle>
    <vehicle id="570" depart="399.00">
        <route edges="0:1 1:3 3:7"/>
    </vehicle>
    <vehicle id="571" depart="399.70">
        <route edges="2:0 0:1 1:5 5:6"/>
    </vehicle>
    <vehicle id="575" depart="402.50">
        <route edges="0:1 1:3"/>
    </vehicle>
    <vehicle id="577" depart="403.90">
        <route edges="6:5 5:1"/>
    </vehicle>
    <vehicle id="578" depart="404.60">
        <route edges="6:5 5:1 1:3 3:7"/>
    </vehicle>
    <vehicle id="586" depart="410.20">
        <route edges="1:0 0:2"/>
    </vehicle>
    <vehicle id="587" depart="410.90">
        <route edges="3:1"/>
    </vehicle>
    <vehicle id="589" depart="412.30">
        <route edges="6:5 5:1 1:3 3:7"/>
    </vehicle>
    <vehicle id="590" depart="413.00">
        <route edges="7:3 3:1 1:5 5:6"/>
    </vehicle>
    <vehicle id="591" depart="413.70">
        <route edges="2:0 0:1 1:3 3:7"/>
    </vehicle>
    <vehicle id="597" depart="417.90">
        <route edges="5:1 1:0 0:2"/>
    </vehicle>
    <vehicle id="600" depart="420.00">
        <route edges="1:0 0:2"/>
    </vehicle>
    <vehicle id="601" depart="420.70">
        <route edges="7:3 3:1 1:5 5:6"/>
    </vehicle>
    <vehicle id="606" depart="424.20">
        <route edges="6:5 5:1 1:0 0:2"/>
    </vehicle>
    <vehicle id="607" depart="424.90">
        <route edges="0:1 1:3"/>
    </vehicle>
    <vehicle id="608" depart="425.60">
        <route edges="2:0 0:1 1:5 5:6"/>
    </vehicle>
    <vehicle id="610" depart="427.00">
        <route edges="2:0 0:1 1:3 3:7"/>
    </vehicle>
    <vehicle id="611" depart="427.70">
        <route edges="0:1"/>
    </vehicle>
    <vehicle id="612" depart="428.40">
        <route edges="3:1 1:0"/>
    </vehicle>
    <vehicle id="613" depart="429.10">
        <route edges="1:3 3:7"/>
    </vehicle>
    <vehicle id="617" depart="431.90">
        <route edges="2:0 0:1 1:5"/>
    </vehicle>
    <vehicle id="619" depart="433.30">
        <route edges="7:3 3:1"/>
    </vehicle>
    <vehicle id="620" depart="434.00">
        <route edges="5:1"/>
    </vehicle>
    <vehicle id="621" depart="434.70">
        <route edges="2:0 0:1 1:3 3:7"/>
    </vehicle>
    <vehicle id="622" depart="435.40">
        <route edges="6:5 5:1"/>
    </vehicle>
    <vehicle id="625" depart="437.50">
        <route edges="2:0 0:1 1:3"/>
    </vehicle>
    <vehicle id="626" depart="438.20">
        <route edges="1:0"/>
    </vehicle>
    <vehicle id="627" depart="438.90">
        <route edges="0:1 1:3"/>
    </vehicle>
    <vehicle id="628" depart="439.60">
        <route edges="7:3 3:1 1:0 0:2"/>
    </vehicle>
    <vehicle id="631" depart="441.70">
        <route edges="3:1 1:0 0:2"/>
    </vehicle>
    <vehicle id="632" depart="442.40">
        <route edges="1:0 0:2"/>
    </vehicle>
    <vehicle id="634" depart="443.80">
        <route edges="2:0 0:1 1:3 3:7"/>
    </vehicle>
    <vehicle id="636" depart="445.20">
        <route edges="1:0"/>
    </vehicle>
    <vehicle id="637" depart="445.90">
        <route edges="3:1 1:5 5:6"/>
    </vehicle>
    <vehicle id="638" depart="446.60">
        <route edges="7:3 3:1 1:0"/>
    </vehicle>
    <vehicle id="639" depart="447.30">
        <route edges="1:5 5:6"/>
    </vehicle>
    <vehicle id="642" depart="449.40">
        <route edges="2:0 0:1 1:3"/>
    </vehicle>
    <vehicle id="643" depart="450.10">
        <route edges="1:3 3:7"/>
    </vehicle>
    <vehicle id="645" depart="451.50">
        <route edges="2:0 0:1 1:3 3:7"/>
    </vehicle>
    <vehicle id="650" depart="455.00">
        <route edges="1:3"/>
    </vehicle>
    <vehicle id="652" depart="456.40">
        <route edges="3:1"/>
    </vehicle>
    <vehicle id="654" depart="457.80">
        <route edges="3:1 1:0"/>
    </vehicle>
    <vehicle id="656" depart="459.20">
        <route edges="7:3 3:1 1:0 0:2"/>
    </vehicle>
    <vehicle id="659" depart="461.30">