<?xml version="1.0" encoding="UTF-8"?>

<!-- generated on Thu Feb 13 12:38:35 2014 by SUMO duarouter Version 0.18.0
<?xml version="1.0" encoding="UTF-8"?>

<configuration xmlns:xsi="http://www.w3.org/2001/XMLSchema-instance" xsi:noNamespaceSchemaLocation="http://sumo.sf.net/xsd/duarouterConfiguration.xsd">

    <input>
        <net-file value="simpleT.net.xml"/>
        <trip-files value="experimentos/simpleT.p0.1.9.trips.xml"/>
    </input>

    <output>
        <output-file value="experimentos/simpleT.p0.1.9.rou.xml"/>
    </output>

    <processing>
        <ignore-errors value="true"/>
    </processing>

    <random_number>
        <random value="true"/>
    </random_number>

</configuration>
-->

<routes xmlns:xsi="http://www.w3.org/2001/XMLSchema-instance" xsi:noNamespaceSchemaLocation="http://sumo.sf.net/xsd/routes_file.xsd">
    <vehicle id="0" depart="0.00">
        <route edges="5:1 1:0 0:2"/>
    </vehicle>
    <vehicle id="4" depart="0.40">
        <route edges="0:1 1:3 3:7"/>
    </vehicle>
    <vehicle id="5" depart="0.50">
        <route edges="1:0"/>
    </vehicle>
    <vehicle id="7" depart="0.70">
        <route edges="0:1 1:3 3:7"/>
    </vehicle>
    <vehicle id="8" depart="0.80">
        <route edges="7:3 3:1 1:5"/>
    </vehicle>
    <vehicle id="9" depart="0.90">
        <route edges="6:5 5:1 1:0"/>
    </vehicle>
    <vehicle id="13" depart="1.30">
        <route edges="1:3"/>
    </vehicle>
    <vehicle id="16" depart="1.60">
        <route edges="1:3 3:7"/>
    </vehicle>
    <vehicle id="18" depart="1.80">
        <route edges="6:5 5:1 1:0"/>
    </vehicle>
    <vehicle id="19" depart="1.90">
        <route edges="2:0 0:1 1:3"/>
    </vehicle>
    <vehicle id="20" depart="2.00">
        <route edges="2:0 0:1 1:3 3:7"/>
    </vehicle>
    <vehicle id="23" depart="2.30">
        <route edges="1:0"/>
    </vehicle>
    <vehicle id="24" depart="2.40">
        <route edges="1:5 5:6"/>
    </vehicle>
    <vehicle id="27" depart="2.70">
        <route edges="2:0 0:1 1:3 3:7"/>
    </vehicle>
    <vehicle id="28" depart="2.80">
        <route edges="2:0 0:1 1:3 3:7"/>
    </vehicle>
    <vehicle id="29" depart="2.90">
        <route edges="7:3 3:1 1:0 0:2"/>
    </vehicle>
    <vehicle id="31" depart="3.10">
        <route edges="1:0 0:2"/>
    </vehicle>
    <vehicle id="33" depart="3.30">
        <route edges="2:0 0:1 1:3"/>
    </vehicle>
    <vehicle id="34" depart="3.40">
        <route edges="2:0 0:1 1:3 3:7"/>
    </vehicle>
    <vehicle id="38" depart="3.80">
        <route edges="2:0 0:1 1:5 5:6"/>
    </vehicle>
    <vehicle id="39" depart="3.90">
        <route edges="2:0 0:1 1:3 3:7"/>
    </vehicle>
    <vehicle id="41" depart="4.10">
        <route edges="2:0 0:1 1:3 3:7"/>
    </vehicle>
    <vehicle id="44" depart="4.40">
        <route edges="0:1 1:3"/>
    </vehicle>
    <vehicle id="48" depart="4.80">
        <route edges="3:1 1:0"/>
    </vehicle>
    <vehicle id="51" depart="5.10">
        <route edges="6:5 5:1 1:3 3:7"/>
    </vehicle>
    <vehicle id="52" depart="5.20">
        <route edges="2:0 0:1 1:3"/>
    </vehicle>
    <vehicle id="53" depart="5.30">
        <route edges="3:1"/>
    </vehicle>
    <vehicle id="54" depart="5.40">
        <route edges="7:3 3:1 1:0 0:2"/>
    </vehicle>
    <vehicle id="55" depart="5.50">
        <route edges="7:3 3:1"/>
    </vehicle>
    <vehicle id="56" depart="5.60">
        <route edges="7:3 3:1 1:0 0:2"/>
    </vehicle>
    <vehicle id="57" depart="5.70">
        <route edges="2:0 0:1 1:5 5:6"/>
    </vehicle>
    <vehicle id="62" depart="6.20">
        <route edges="5:1"/>
    </vehicle>
    <vehicle id="63" depart="6.30">
        <route edges="2:0 0:1 1:3 3:7"/>
    </vehicle>
    <vehicle id="66" depart="6.60">
        <route edges="7:3 3:1 1:0 0:2"/>
    </vehicle>
    <vehicle id="68" depart="6.80">
        <route edges="2:0 0:1 1:3 3:7"/>
    </vehicle>
    <vehicle id="70" depart="7.00">
        <route edges="0:1 1:3 3:7"/>
    </vehicle>
    <vehicle id="71" depart="7.10">
        <route edges="1:3 3:7"/>
    </vehicle>
    <vehicle id="72" depart="7.20">
        <route edges="1:3"/>
    </vehicle>
    <vehicle id="78" depart="7.80">
        <route edges="2:0 0:1 1:3 3:7"/>
    </vehicle>
    <vehicle id="79" depart="7.90">
        <route edges="5:1 1:0"/>
    </vehicle>
    <vehicle id="80" depart="8.00">
        <route edges="6:5 5:1 1:3"/>
    </vehicle>
    <vehicle id="81" depart="8.10">
        <route edges="2:0 0:1"/>
    </vehicle>
    <vehicle id="82" depart="8.20">
        <route edges="1:3"/>
    </vehicle>
    <vehicle id="83" depart="8.30">
        <route edges="7:3 3:1 1:5"/>
    </vehicle>
    <vehicle id="89" depart="8.90">
        <route edges="5:1 1:0"/>
    </vehicle>
    <vehicle id="91" depart="9.10">
        <route edges="7:3 3:1 1:0 0:2"/>
    </vehicle>
    <vehicle id="93" depart="9.30">
        <route edges="0:1 1:5 5:6"/>
    </vehicle>
    <vehicle id="94" depart="9.40">
        <route edges="1:5"/>
    </vehicle>
    <vehicle id="95" depart="9.50">
        <route edges="5:1 1:3 3:7"/>
    </vehicle>
    <vehicle id="97" depart="9.70">
        <route edges="2:0 0:1 1:3 3:7"/>
    </vehicle>
    <vehicle id="99" depart="9.90">
        <route edges="0:1 1:3 3:7"/>
    </vehicle>
    <vehicle id="100" depart="10.00">
        <route edges="0:1 1:3 3:7"/>
    </vehicle>
    <vehicle id="101" depart="10.10">
        <route edges="1:3"/>
    </vehicle>
    <vehicle id="103" depart="10.30">
        <route edges="2:0 0:1 1:3 3:7"/>
    </vehicle>
    <vehicle id="108" depart="10.80">
        <route edges="6:5 5:1 1:3"/>
    </vehicle>
    <vehicle id="109" depart="10.90">
        <route edges="2:0 0:1 1:5 5:6"/>
    </vehicle>
    <vehicle id="110" depart="11.00">
        <route edges="7:3 3:1 1:5 5:6"/>
    </vehicle>
    <vehicle id="115" depart="11.50">
        <route edges="7:3 3:1 1:5 5:6"/>
    </vehicle>
    <vehicle id="116" depart="11.60">
        <route edges="2:0 0:1 1:3 3:7"/>
    </vehicle>
    <vehicle id="117" depart="11.70">
        <route edges="7:3 3:1 1:0 0:2"/>
    </vehicle>
    <vehicle id="124" depart="12.40">
        <route edges="1:3 3:7"/>
    </vehicle>
    <vehicle id="127" depart="12.70">
        <route edges="0:1 1:5 5:6"/>
    </vehicle>
    <vehicle id="132" depart="13.20">
        <route edges="6:5 5:1 1:0 0:2"/>
    </vehicle>
    <vehicle id="133" depart="13.30">
        <route edges="7:3 3:1 1:5"/>
    </vehicle>
    <vehicle id="134" depart="13.40">
        <route edges="7:3 3:1 1:0 0:2"/>
    </vehicle>
    <vehicle id="136" depart="13.60">
        <route edges="3:1"/>
    </vehicle>
    <vehicle id="137" depart="13.70">
        <route edges="7:3 3:1 1:5"/>
    </vehicle>
    <vehicle id="138" depart="13.80">
        <route edges="0:1 1:3 3:7"/>
    </vehicle>
    <vehicle id="142" depart="14.20">
        <route edges="2:0 0:1"/>
    </vehicle>
    <vehicle id="145" depart="14.50">
        <route edges="3:1 1:0 0:2"/>
    </vehicle>
    <vehicle id="148" depart="14.80">
        <route edges="3:1 1:0"/>
    </vehicle>
    <vehicle id="149" depart="14.90">
        <route edges="0:1 1:5"/>
    </vehicle>
    <vehicle id="151" depart="15.10">
        <route edges="3:1"/>
    </vehicle>
    <vehicle id="152" depart="15.20">
        <route edges="0:1 1:3 3:7"/>
    </vehicle>
    <vehicle id="153" depart="15.30">
        <route edges="7:3 3:1 1:0 0:2"/>
    </vehicle>
    <vehicle id="154" depart="15.40">
        <route edges="7:3 3:1 1:0 0:2"/>
    </vehicle>
    <vehicle id="156" depart="15.60">
        <route edges="2:0 0:1 1:3 3:7"/>
    </vehicle>
    <vehicle id="159" depart="15.90">
        <route edges="0:1 1:3"/>
    </vehicle>
    <vehicle id="163" depart="16.30">
        <route edges="6:5 5:1 1:3"/>
    </vehicle>
    <vehicle id="164" depart="16.40">
        <route edges="3:1 1:0 0:2"/>
    </vehicle>
    <vehicle id="167" depart="16.70">
        <route edges="5:1 1:0 0:2"/>
    </vehicle>
    <vehicle id="168" depart="16.80">
        <route edges="2:0 0:1 1:3 3:7"/>
    </vehicle>
    <vehicle id="169" depart="16.90">
        <route edges="6:5 5:1 1:0"/>
    </vehicle>
    <vehicle id="171" depart="17.10">
        <route edges="0:1 1:5 5:6"/>
    </vehicle>
    <vehicle id="173" depart="17.30">
        <route edges="7:3 3:1 1:5"/>
    </vehicle>
    <vehicle id="178" depart="17.80">
        <route edges="0:1"/>
    </vehicle>
    <vehicle id="179" depart="17.90">
        <route edges="6:5 5:1 1:3 3:7"/>
    </vehicle>
    <vehicle id="182" depart="18.20">
        <route edges="7:3 3:1 1:0 0:2"/>
    </vehicle>
    <vehicle id="184" depart="18.40">
        <route edges="7:3 3:1 1:0"/>
    </vehicle>
    <vehicle id="185" depart="18.50">
        <route edges="3:1 1:0 0:2"/>
    </vehicle>
    <vehicle id="186" depart="18.60">
        <route edges="1:0 0:2"/>
    </vehicle>
    <vehicle id="187" depart="18.70">
        <route edges="6:5 5:1"/>
    </vehicle>
    <vehicle id="188" depart="18.80">
        <route edges="3:1 1:0 0:2"/>
    </vehicle>
    <vehicle id="189" depart="18.90">
        <route edges="1:3 3:7"/>
    </vehicle>
    <vehicle id="192" depart="19.20">
        <route edges="2:0 0:1 1:3 3:7"/>
    </vehicle>
    <vehicle id="193" depart="19.30">
        <route edges="2:0 0:1 1:5 5:6"/>
    </vehicle>
    <vehicle id="194" depart="19.40">
        <route edges="0:1 1:3 3:7"/>
    </vehicle>
    <vehicle id="198" depart="19.80">
        <route edges="2:0 0:1 1:3 3:7"/>
    </vehicle>
    <vehicle id="201" depart="20.10">
        <route edges="2:0 0:1 1:5 5:6"/>
    </vehicle>
    <vehicle id="202" depart="20.20">
        <route edges="1:0 0:2"/>
    </vehicle>
    <vehicle id="203" depart="20.30">
        <route edges="7:3 3:1 1:5"/>
    </vehicle>
    <vehicle id="206" depart="20.60">
        <route edges="7:3 3:1"/>
    </vehicle>
    <vehicle id="208" depart="20.80">
        <route edges="7:3 3:1 1:0 0:2"/>
    </vehicle>
    <vehicle id="210" depart="21.00">
        <route edges="3:1 1:0 0:2"/>
    </vehicle>
    <vehicle id="211" depart="21.10">
        <route edges="7:3 3:1 1:5 5:6"/>
    </vehicle>
    <vehicle id="216" depart="21.60">
        <route edges="7:3 3:1 1:0 0:2"/>
    </vehicle>
    <vehicle id="217" depart="21.70">
        <route edges="6:5 5:1 1:3 3:7"/>
    </vehicle>
    <vehicle id="219" depart="21.90">
        <route edges="7:3 3:1 1:0"/>
    </vehicle>
    <vehicle id="222" depart="22.20">
        <route edges="7:3 3:1 1:5 5:6"/>
    </vehicle>
    <vehicle id="225" depart="22.50">
        <route edges="3:1 1:5 5:6"/>
    </vehicle>
    <vehicle id="226" depart="22.60">
        <route edges="3:1 1:0 0:2"/>
    </vehicle>
    <vehicle id="227" depart="22.70">
        <route edges="7:3 3:1 1:0"/>
    </vehicle>
    <vehicle id="228" depart="22.80">
        <route edges="6:5 5:1 1:3"/>
    </vehicle>
    <vehicle id="230" depart="23.00">
        <route edges="1:3 3:7"/>
    </vehicle>
    <vehicle id="232" depart="23.20">
        <route edges="3:1 1:0"/>
    </vehicle>
    <vehicle id="234" depart="23.40">
        <route edges="6:5 5:1 1:3 3:7"/>
    </vehicle>
    <vehicle id="237" depart="23.70">
        <route edges="2:0 0:1 1:5 5:6"/>
    </vehicle>
    <vehicle id="239" depart="23.90">
        <route edges="5:1 1:3 3:7"/>
    </vehicle>
    <vehicle id="241" depart="24.10">
        <route edges="6:5 5:1 1:0"/>
    </vehicle>
    <vehicle id="245" depart="24.50">
        <route edges="0:1"/>
    </vehicle>
    <vehicle id="248" depart="24.80">
        <route edges="3:1 1:0 0:2"/>
    </vehicle>
    <vehicle id="249" depart="24.90">
        <route edges="2:0 0:1 1:3 3:7"/>
    </vehicle>
    <vehicle id="250" depart="25.00">
        <route edges="3:1 1:0"/>
    </vehicle>
    <vehicle id="251" depart="25.10">
        <route edges="3:1 1:0"/>
    </vehicle>
    <vehicle id="254" depart="25.40">
        <route edges="2:0 0:1 1:3 3:7"/>
    </vehicle>
    <vehicle id="257" depart="25.70">
        <route edges="7:3 3:1 1:5 5:6"/>
    </vehicle>
    <vehicle id="259" depart="25.90">
        <route edges="6:5 5:1 1:0 0:2"/>
    </vehicle>
    <vehicle id="260" depart="26.00">
        <route edges="1:0 0:2"/>
    </vehicle>
    <vehicle id="261" depart="26.10">
        <route edges="0:1 1:3"/>
    </vehicle>
    <vehicle id="262" depart="26.20">
        <route edges="1:0 0:2"/>
    </vehicle>
    <vehicle id="263" depart="26.30">
        <route edges="2:0 0:1 1:3 3:7"/>
    </vehicle>
    <vehicle id="266" depart="26.60">
        <route edges="1:3"/>
    </vehicle>
    <vehicle id="267" depart="26.70">
        <route edges="6:5 5:1 1:0 0:2"/>
    </vehicle>
    <vehicle id="269" depart="26.90">
        <route edges="3:1 1:0 0:2"/>
    </vehicle>
    <vehicle id="270" depart="27.00">
        <route edges="1:3"/>
    </vehicle>
    <vehicle id="272" depart="27.20">
        <route edges="2:0 0:1"/>
    </vehicle>
    <vehicle id="273" depart="27.30">
        <route edges="6:5 5:1 1:3"/>
    </vehicle>
    <vehicle id="275" depart="27.50">
        <route edges="3:1 1:5 5:6"/>
    </vehicle>
    <vehicle id="277" depart="27.70">
        <route edges="2:0 0:1 1:5 5:6"/>
    </vehicle>
    <vehicle id="278" depart="27.80">
        <route edges="0:1 1:5 5:6"/>
    </vehicle>
    <vehicle id="279" depart="27.90">
        <route edges="7:3 3:1 1:0 0:2"/>
    </vehicle>
    <vehicle id="281" depart="28.10">
        <route edges="5:1 1:0"/>
    </vehicle>
    <vehicle id="283" depart="28.30">
        <route edges="7:3 3:1 1:5 5:6"/>
    </vehicle>
    <vehicle id="289" depart="28.90">
        <route edges="7:3 3:1 1:0 0:2"/>
    </vehicle>
    <vehicle id="290" depart="29.00">
        <route edges="1:0 0:2"/>
    </vehicle>
    <vehicle id="291" depart="29.10">
        <route edges="6:5 5:1"/>
    </vehicle>
    <vehicle id="294" depart="29.40">
        <route edges="1:0 0:2"/>
    </vehicle>
    <vehicle id="295" depart="29.50">
        <route edges="7:3 3:1 1:5 5:6"/>
    </vehicle>
    <vehicle id="296" depart="29.60">
        <route edges="2:0 0:1 1:3 3:7"/>
    </vehicle>
    <vehicle id="297" depart="29.70">
        <route edges="7:3 3:1"/>
    </vehicle>
    <vehicle id="301" depart="30.10">
        <route edges="1:5 5:6"/>
    </vehicle>
    <vehicle id="304" depart="30.40">
        <route edges="7:3 3:1 1:0 0:2"/>
    </vehicle>
    <vehicle id="305" depart="30.50">
        <route edges="2:0 0:1 1:3"/>
    </vehicle>
    <vehicle id="309" depart="30.90">
        <route edges="2:0 0:1 1:5 5:6"/>
    </vehicle>
    <vehicle id="310" depart="31.00">
        <route edges="6:5 5:1 1:0"/>
    </vehicle>
    <vehicle id="312" depart="31.20">
        <route edges="2:0 0:1 1:5 5:6"/>
    </vehicle>
    <vehicle id="316" depart="31.60">
        <route edges="2:0 0:1 1:3 3:7"/>
    </vehicle>
    <vehicle id="320" depart="32.00">
        <route edges="7:3 3:1 1:0 0:2"/>
    </vehicle>
    <vehicle id="321" depart="32.10">
        <route edges="1:3 3:7"/>
    </vehicle>
    <vehicle id="322" depart="32.20">
        <route edges="3:1 1:0 0:2"/>
    </vehicle>
    <vehicle id="323" depart="32.30">
        <route edges="2:0 0:1 1:3 3:7"/>
    </vehicle>
    <vehicle id="324" depart="32.40">
        <route edges="2:0 0:1 1:3 3:7"/>
    </vehicle>
    <vehicle id="326" depart="32.60">
        <route edges="2:0 0:1 1:3"/>
    </vehicle>
    <vehicle id="330" depart="33.00">
        <route edges="3:1"/>
    </vehicle>
    <vehicle id="332" depart="33.20">
        <route edges="2:0 0:1"/>
    </vehicle>
    <vehicle id="333" depart="33.30">
        <route edges="1:5 5:6"/>
    </vehicle>
    <vehicle id="334" depart="33.40">
        <route edges="0:1 1:5 5:6"/>
    </vehicle>
    <vehicle id="335" depart="33.50">
        <route edges="2:0 0:1 1:3"/>
    </vehicle>
    <vehicle id="336" depart="33.60">
        <route edges="7:3 3:1 1:5"/>
    </vehicle>
    <vehicle id="337" depart="33.70">
        <route edges="1:0 0:2"/>
    </vehicle>
    <vehicle id="340" depart="34.00">
        <route edges="7:3 3:1 1:0"/>
    </vehicle>
    <vehicle id="342" depart="34.20">
        <route edges="2:0 0:1 1:3"/>
    </vehicle>
    <vehicle id="344" depart="34.40">
        <route edges="6:5 5:1 1:3"/>
    </vehicle>
    <vehicle id="346" depart="34.60">
        <route edges="3:1 1:5 5:6"/>
    </vehicle>
    <vehicle id="347" depart="34.70">
        <route edges="7:3 3:1 1:0 0:2"/>
    </vehicle>
    <vehicle id="348" depart="34.80">
        <route edges="3:1 1:0"/>
    </vehicle>
    <vehicle id="349" depart="34.90">
        <route edges="7:3 3:1 1:5 5:6"/>
    </vehicle>
    <vehicle id="353" depart="35.30">
        <route edges="0:1"/>
    </vehicle>
    <vehicle id="357" depart="35.70">
        <route edges="2:0 0:1 1:3"/>
    </vehicle>
    <vehicle id="359" depart="35.90">
        <route edges="0:1 1:3"/>
    </vehicle>
    <vehicle id="360" depart="36.00">
        <route edges="2:0 0:1 1:3 3:7"/>
    </vehicle>
    <vehicle id="364" depart="36.40">
        <route edges="7:3 3:1"/>
    </vehicle>
    <vehicle id="365" depart="36.50">
        <route edges="2:0 0:1 1:3 3:7"/>
    </vehicle>
    <vehicle id="366" depart="36.60">
        <route edges="2:0 0:1 1:5 5:6"/>
    </vehicle>
    <vehicle id="370" depart="37.00">
        <route edges="7:3 3:1 1:0"/>
    </vehicle>
    <vehicle id="371" depart="37.10">
        <route edges="3:1 1:5 5:6"/>
    </vehicle>
    <vehicle id="374" depart="37.40">
        <route edges="1:3 3:7"/>
    </vehicle>
    <vehicle id="380" depart="38.00">
        <route edges="3:1 1:5"/>
    </vehicle>
    <vehicle id="381" depart="38.10">
        <route edges="2:0 0:1 1:3 3:7"/>
    </vehicle>
    <vehicle id="383" depart="38.30">
        <route edges="2:0 0:1 1:3 3:7"/>
    </vehicle>
    <vehicle id="388" depart="38.80">
        <route edges="2:0 0:1 1:5 5:6"/>
    </vehicle>
    <vehicle id="392" depart="39.20">
        <route edges="2:0 0:1 1:3 3:7"/>
    </vehicle>
    <vehicle id="394" depart="39.40">
        <route edges="6:5 5:1 1:3 3:7"/>
    </vehicle>
    <vehicle id="396" depart="39.60">
        <route edges="1:3 3:7"/>
    </vehicle>
    <vehicle id="397" depart="39.70">
        <route edges="5:1 1:0 0:2"/>
    </vehicle>
    <vehicle id="398" depart="39.80">
        <route edges="0:1 1:3 3:7"/>
    </vehicle>
    <vehicle id="399" depart="39.90">
        <route edges="2:0 0:1 1:3"/>
    </vehicle>
    <vehicle id="401" depart="40.10">
        <route edges="2:0 0:1 1:3 3:7"/>
    </vehicle>
    <vehicle id="402" depart="40.20">
        <route edges="7:3 3:1 1:0"/>
    </vehicle>
    <vehicle id="403" depart="40.30">
        <route edges="1:3"/>
    </vehicle>
    <vehicle id="405" depart="40.50">
        <route edges="6:5 5:1 1:3 3:7"/>
    </vehicle>
    <vehicle id="406" depart="40.60">
        <route edges="5:1 1:3 3:7"/>
    </vehicle>
    <vehicle id="407" depart="40.70">
        <route edges="6:5 5:1 1:0 0:2"/>
    </vehicle>
    <vehicle id="408" depart="40.80">
        <route edges="2:0 0:1 1:3 3:7"/>
    </vehicle>
    <vehicle id="409" depart="40.90">
        <route edges="6:5 5:1 1:0 0:2"/>
    </vehicle>
    <vehicle id="415" depart="41.50">
        <route edges="7:3 3:1"/>
    </vehicle>
    <vehicle id="417" depart="41.70">
        <route edges="3:1 1:0 0:2"/>
    </vehicle>
    <vehicle id="418" depart="41.80">
        <route edges="7:3 3:1 1:5"/>
    </vehicle>
    <vehicle id="422" depart="42.20">
        <route edges="3:1 1:5"/>
    </vehicle>
    <vehicle id="424" depart="42.40">
        <route edges="0:1 1:5 5:6"/>
    </vehicle>
    <vehicle id="426" depart="42.60">
        <route edges="6:5 5:1 1:0 0:2"/>
    </vehicle>
    <vehicle id="427" depart="42.70">
        <route edges="2:0 0:1 1:3"/>
    </vehicle>
    <vehicle id="428" depart="42.80">
        <route edges="2:0 0:1 1:5 5:6"/>
    </vehicle>
    <vehicle id="431" depart="43.10">
        <route edges="3:1 1:5 5:6"/>
    </vehicle>
    <vehicle id="432" depart="43.20">
        <route edges="1:3"/>
    </vehicle>
    <vehicle id="436" depart="43.60">
        <route edges="6:5 5:1 1:3 3:7"/>
    </vehicle>
    <vehicle id="438" depart="43.80">
        <route edges="3:1 1:0 0:2"/>
    </vehicle>
    <vehicle id="439" depart="43.90">
        <route edges="0:1 1:3"/>
    </vehicle>
    <vehicle id="440" depart="44.00">
        <route edges="5:1 1:3 3:7"/>
    </vehicle>
    <vehicle id="442" depart="44.20">
        <route edges="6:5 5:1 1:3"/>
    </vehicle>
    <vehicle id="445" depart="44.50">
        <route edges="1:3 3:7"/>
    </vehicle>
    <vehicle id="448" depart="44.80">
        <route edges="1:0"/>
    </vehicle>
    <vehicle id="449" depart="44.90">
        <route edges="2:0 0:1 1:5 5:6"/>
    </vehicle>
    <vehicle id="450" depart="45.00">
        <route edges="7:3 3:1 1:0 0:2"/>
    </vehicle>
    <vehicle id="451" depart="45.10">
        <route edges="1:0 0:2"/>
    </vehicle>
    <vehicle id="453" depart="45.30">
        <route edges="7:3 3:1 1:5"/>
    </vehicle>
    <vehicle id="460" depart="46.00">
        <route edges="2:0 0:1 1:5"/>
    </vehicle>
    <vehicle id="462" depart="46.20">
        <route edges="6:5 5:1 1:3 3:7"/>
    </vehicle>
    <vehicle id="463" depart="46.30">
        <route edges="3:1 1:0"/>
    </vehicle>
    <vehicle id="466" depart="46.60">
        <route edges="5:1"/>
    </vehicle>
    <vehicle id="468" depart="46.80">
        <route edges="2:0 0:1 1:5"/>
    </vehicle>
    <vehicle id="469" depart="46.90">
        <route edges="2:0 0:1 1:5 5:6"/>
    </vehicle>
    <vehicle id="470" depart="47.00">
        <route edges="2:0 0:1 1:3 3:7"/>
    </vehicle>
    <vehicle id="472" depart="47.20">
        <route edges="7:3 3:1 1:5 5:6"/>
    </vehicle>
    <vehicle id="475" depart="47.50">
        <route edges="2:0 0:1 1:5 5:6"/>
    </vehicle>
    <vehicle id="476" depart="47.60">
        <route edges="3:1 1:5 5:6"/>
    </vehicle>
    <vehicle id="480" depart="48.00">
        <route edges="1:0"/>
    </vehicle>
    <vehicle id="481" depart="48.10">
        <route edges="1:0"/>
    </vehicle>
    <vehicle id="482" depart="48.20">
        <route edges="5:1 1:3"/>
    </vehicle>
    <vehicle id="483" depart="48.30">
        <route edges="0:1 1:3 3:7"/>
    </vehicle>
    <vehicle id="484" depart="48.40">
        <route edges="1:0 0:2"/>
    </vehicle>
    <vehicle id="486" depart="48.60">
        <route edges="5:1 1:3 3:7"/>
    </vehicle>
    <vehicle id="491" depart="49.10">
        <route edges="6:5 5:1 1:3 3:7"/>
    </vehicle>
    <vehicle id="493" depart="49.30">
        <route edges="2:0 0:1 1:3 3:7"/>
    </vehicle>
    <vehicle id="494" depart="49.40">
        <route edges="1:0 0:2"/>
    </vehicle>
    <vehicle id="496" depart="49.60">
        <route edges="0:1 1:5 5:6"/>
    </vehicle>
    <vehicle id="497" depart="49.70">
        <route edges="2:0 0:1"/>
    </vehicle>
    <vehicle id="498" depart="49.80">
        <route edges="2:0 0:1 1:5"/>
    </vehicle>
    <vehicle id="500" depart="50.00">
        <route edges="7:3 3:1"/>
    </vehicle>
    <vehicle id="501" depart="50.10">
        <route edges="6:5 5:1 1:3"/>
    </vehicle>
    <vehicle id="505" depart="50.50">
        <route edges="6:5 5:1"/>
    </vehicle>
    <vehicle id="507" depart="50.70">
        <route edges="7:3 3:1 1:0 0:2"/>
    </vehicle>
    <vehicle id="508" depart="50.80">
        <route edges="2:0 0:1 1:3"/>
    </vehicle>
    <vehicle id="510" depart="51.00">
        <route edges="1:0"/>
    </vehicle>
    <vehicle id="512" depart="51.20">
        <route edges="2:0 0:1"/>
    </vehicle>
    <vehicle id="514" depart="51.40">
        <route edges="6:5 5:1 1:0 0:2"/>
    </vehicle>
    <vehicle id="516" depart="51.60">
        <route edges="0:1 1:5 5:6"/>
    </vehicle>
    <vehicle id="517" depart="51.70">
        <route edges="3:1 1:0"/>
    </vehicle>
    <vehicle id="519" depart="51.90">
        <route edges="7:3 3:1 1:0 0:2"/>
    </vehicle>
    <vehicle id="522" depart="52.20">
        <route edges="2:0 0:1 1:5 5:6"/>
    </vehicle>
    <vehicle id="525" depart="52.50">
        <route edges="7:3 3:1 1:0 0:2"/>
    </vehicle>
    <vehicle id="526" depart="52.60">
        <route edges="1:3 3:7"/>
    </vehicle>
    <vehicle id="528" depart="52.80">
        <route edges="3:1 1:0 0:2"/>
    </vehicle>
    <vehicle id="529" depart="52.90">
        <route edges="3:1 1:0"/>
    </vehicle>
    <vehicle id="532" depart="53.20">
        <route edges="7:3 3:1 1:5"/>
    </vehicle>
    <vehicle id="534" depart="53.40">
        <route edges="5:1 1:3 3:7"/>
    </vehicle>
    <vehicle id="535" depart="53.50">
        <route edges="5:1 1:3 3:7"/>
    </vehicle>
    <vehicle id="536" depart="53.60">
        <route edges="1:3"/>
    </vehicle>
    <vehicle id="538" depart="53.80">
        <route edges="2:0 0:1 1:5 5:6"/>
    </vehicle>
    <vehicle id="539" depart="53.90">
        <route edges="0:1 1:3"/>
    </vehicle>
    <vehicle id="544" depart="54.40">
        <route edges="7:3 3:1 1:0"/>
    </vehicle>
    <vehicle id="548" depart="54.80">
        <route edges="3:1 1:0"/>
    </vehicle>
    <vehicle id="552" depart="55.20">
        <route edges="7:3 3:1 1:5 5:6"/>
    </vehicle>
    <vehicle id="554" depart="55.40">
        <route edges="1:0 0:2"/>
    </vehicle>
    <vehicle id="555" depart="55.50">
        <route edges="2:0 0:1 1:3"/>
    </vehicle>
    <vehicle id="562" depart="56.20">
        <route edges="7:3 3:1 1:0 0:2"/>
    </vehicle>
    <vehicle id="563" depart="56.30">
        <route edges="2:0 0:1"/>
    </vehicle>
    <vehicle id="566" depart="56.60">
        <route edges="7:3 3:1 1:0 0:2"/>
    </vehicle>
    <vehicle id="567" depart="56.70">
        <route edges="3:1 1:0 0:2"/>
    </vehicle>
    <vehicle id="574" depart="57.40">
        <route edges="3:1 1:0 0:2"/>
    </vehicle>
    <vehicle id="575" depart="57.50">
        <route edges="2:0 0:1"/>
    </vehicle>
    <vehicle id="577" depart="57.70">
        <route edges="0:1 1:5"/>
    </vehicle>
    <vehicle id="578" depart="57.80">
        <route edges="2:0 0:1 1:3 3:7"/>
    </vehicle>
    <vehicle id="580" depart="58.00">
        <route edges="7:3 3:1 1:0"/>
    </vehicle>
    <vehicle id="581" depart="58.10">
        <route edges="6:5 5:1 1:0 0:2"/>
    </vehicle>
    <vehicle id="584" depart="58.40">
        <route edges="6:5 5:1 1:0 0:2"/>
    </vehicle>
    <vehicle id="589" depart="58.90">
        <route edges="2:0 0:1"/>
    </vehicle>
    <vehicle id="592" depart="59.20">
        <route edges="6:5 5:1 1:0 0:2"/>
    </vehicle>
    <vehicle id="594" depart="59.40">
        <route edges="7:3 3:1 1:0 0:2"/>
    </vehicle>
    <vehicle id="597" depart="59.70">
        <route edges="1:3 3:7"/>
    </vehicle>
    <vehicle id="598" depart="59.80">
        <route edges="6:5 5:1 1:3 3:7"/>
    </vehicle>
    <vehicle id="599" depart="59.90">
        <route edges="7:3 3:1"/>
    </vehicle>
    <vehicle id="601" depart="60.10">
        <route edges="0:1"/>
    </vehicle>
    <vehicle id="603" depart="60.30">
        <route edges="5:1 1:3 3:7"/>
    </vehicle>
    <vehicle id="608" depart="60.80">
        <route edges="1:0 0:2"/>
    </vehicle>
    <vehicle id="612" depart="61.20">
        <route edges="0:1 1:5 5:6"/>
    </vehicle>
    <vehicle id="613" depart="61.30">
        <route edges="5:1 1:0 0:2"/>
    </vehicle>
    <vehicle id="619" depart="61.90">
        <route edges="7:3 3:1 1:0 0:2"/>
    </vehicle>
    <vehicle id="622" depart="62.20">
        <route edges="3:1 1:0 0:2"/>
    </vehicle>
    <vehicle id="626" depart="62.60">
        <route edges="0:1 1:5 5:6"/>
    </vehicle>
    <vehicle id="627" depart="62.70">
        <route edges="5:1 1:3"/>
    </vehicle>
    <vehicle id="629" depart="62.90">
        <route edges="3:1 1:5 5:6"/>
    </vehicle>
    <vehicle id="631" depart="63.10">
        <route edges="7:3 3:1"/>
    </vehicle>
    <vehicle id="632" depart="63.20">
        <route edges="7:3 3:1 1:0 0:2"/>
    </vehicle>
    <vehicle id="637" depart="63.70">
        <route edges="2:0 0:1 1:3"/>
    </vehicle>
    <vehicle id="642" depart="64.20">
        <route edges="2:0 0:1 1:3 3:7"/>
    </vehicle>
    <vehicle id="645" depart="64.50">
        <route edges="6:5 5:1 1:0 0:2"/>
    </vehicle>
    <vehicle id="647" depart="64.70">
        <route edges="0:1"/>
    </vehicle>
    <vehicle id="649" depart="64.90">
        <route edges="3:1 1:0"/>
    </vehicle>
    <vehicle id="650" depart="65.00">
        <route edges="2:0 0:1 1:5"/>
    </vehicle>
    <vehicle id="652" depart="65.20">
        <route edges="6:5 5:1 1:3 3:7"/>
    </vehicle>
    <vehicle id="653" depart="65.30">
        <route edges="7:3 3:1 1:0 0:2"/>
    </vehicle>
    <vehicle id="655" depart="65.50">
        <route edges="2:0 0:1 1:3 3:7"/>
    </vehicle>
    <vehicle id="656" depart="65.60">
        <route edges="7:3 3:1 1:0 0:2"/>
    </vehicle>
    <vehicle id="657" depart="65.70">
        <route edges="2:0 0:1"/>
    </vehicle>
    <vehicle id="658" depart="65.80">
        <route edges="6:5 5:1 1:0 0:2"/>
    </vehicle>
    <vehicle id="659" depart="65.90">
        <route edges="5:1 1:0 0:2"/>
    </vehicle>
    <vehicle id="663" depart="66.30">
        <route edges="6:5 5:1 1:0 0:2"/>
    </vehicle>
    <vehicle id="667" depart="66.70">
        <route edges="7:3 3:1 1:5 5:6"/>
    </vehicle>
    <vehicle id="668" depart="66.80">
        <route edges="5:1 1:3 3:7"/>
    </vehicle>
    <vehicle id="671" depart="67.10">
        <route edges="2:0 0:1 1:3 3:7"/>
    </vehicle>
    <vehicle id="672" depart="67.20">
        <route edges="3:1 1:0 0:2"/>
    </vehicle>
    <vehicle id="679" depart="67.90">
        <route edges="1:3 3:7"/>
    </vehicle>
    <vehicle id="684" depart="68.40">
        <route edges="0:1 1:3 3:7"/>
    </vehicle>
    <vehicle id="685" depart="68.50">
        <route edges="7:3 3:1 1:0"/>
    </vehicle>
    <vehicle id="686" depart="68.60">