<?xml version="1.0" encoding="UTF-8"?>

<!-- generated on Thu Feb 13 12:39:45 2014 by SUMO duarouter Version 0.18.0
<?xml version="1.0" encoding="UTF-8"?>

<configuration xmlns:xsi="http://www.w3.org/2001/XMLSchema-instance" xsi:noNamespaceSchemaLocation="http://sumo.sf.net/xsd/duarouterConfiguration.xsd">

    <input>
        <net-file value="simpleT.net.xml"/>
        <trip-files value="experimentos/simpleT.p0.7.10.trips.xml"/>
    </input>

    <output>
        <output-file value="experimentos/simpleT.p0.7.10.rou.xml"/>
    </output>

    <processing>
        <ignore-errors value="true"/>
    </processing>

    <random_number>
        <random value="true"/>
    </random_number>

</configuration>
-->

<routes xmlns:xsi="http://www.w3.org/2001/XMLSchema-instance" xsi:noNamespaceSchemaLocation="http://sumo.sf.net/xsd/routes_file.xsd">
    <vehicle id="0" depart="0.00">
        <route edges="7:3 3:1 1:0 0:2"/>
    </vehicle>
    <vehicle id="1" depart="0.70">
        <route edges="7:3 3:1 1:0 0:2"/>
    </vehicle>
    <vehicle id="2" depart="1.40">
        <route edges="2:0 0:1 1:3 3:7"/>
    </vehicle>
    <vehicle id="3" depart="2.10">
        <route edges="7:3 3:1 1:0"/>
    </vehicle>
    <vehicle id="4" depart="2.80">
        <route edges="6:5 5:1 1:0 0:2"/>
    </vehicle>
    <vehicle id="8" depart="5.60">
        <route edges="0:1 1:3"/>
    </vehicle>
    <vehicle id="11" depart="7.70">
        <route edges="3:1 1:0 0:2"/>
    </vehicle>
    <vehicle id="12" depart="8.40">
        <route edges="7:3 3:1 1:0 0:2"/>
    </vehicle>
    <vehicle id="17" depart="11.90">
        <route edges="5:1 1:3 3:7"/>
    </vehicle>
    <vehicle id="23" depart="16.10">
        <route edges="7:3 3:1 1:0 0:2"/>
    </vehicle>
    <vehicle id="25" depart="17.50">
        <route edges="2:0 0:1 1:3 3:7"/>
    </vehicle>
    <vehicle id="27" depart="18.90">
        <route edges="1:0 0:2"/>
    </vehicle>
    <vehicle id="29" depart="20.30">
        <route edges="3:1 1:5"/>
    </vehicle>
    <vehicle id="30" depart="21.00">
        <route edges="6:5 5:1 1:3"/>
    </vehicle>
    <vehicle id="31" depart="21.70">
        <route edges="3:1"/>
    </vehicle>
    <vehicle id="33" depart="23.10">
        <route edges="2:0 0:1 1:3 3:7"/>
    </vehicle>
    <vehicle id="35" depart="24.50">
        <route edges="7:3 3:1 1:0"/>
    </vehicle>
    <vehicle id="37" depart="25.90">
        <route edges="2:0 0:1"/>
    </vehicle>
    <vehicle id="38" depart="26.60">
        <route edges="1:0"/>
    </vehicle>
    <vehicle id="39" depart="27.30">
        <route edges="0:1 1:5 5:6"/>
    </vehicle>
    <vehicle id="40" depart="28.00">
        <route edges="0:1"/>
    </vehicle>
    <vehicle id="41" depart="28.70">
        <route edges="6:5 5:1 1:3"/>
    </vehicle>
    <vehicle id="50" depart="35.00">
        <route edges="6:5 5:1 1:0 0:2"/>
    </vehicle>
    <vehicle id="53" depart="37.10">
        <route edges="1:0 0:2"/>
    </vehicle>
    <vehicle id="60" depart="42.00">
        <route edges="5:1 1:0 0:2"/>
    </vehicle>
    <vehicle id="61" depart="42.70">
        <route edges="7:3 3:1 1:5 5:6"/>
    </vehicle>
    <vehicle id="64" depart="44.80">
        <route edges="0:1 1:3 3:7"/>
    </vehicle>
    <vehicle id="66" depart="46.20">
        <route edges="6:5 5:1 1:3 3:7"/>
    </vehicle>
    <vehicle id="67" depart="46.90">
        <route edges="7:3 3:1 1:0"/>
    </vehicle>
    <vehicle id="68" depart="47.60">
        <route edges="0:1 1:5 5:6"/>
    </vehicle>
    <vehicle id="70" depart="49.00">
        <route edges="2:0 0:1 1:3 3:7"/>
    </vehicle>
    <vehicle id="71" depart="49.70">
        <route edges="3:1 1:0 0:2"/>
    </vehicle>
    <vehicle id="73" depart="51.10">
        <route edges="6:5 5:1 1:0 0:2"/>
    </vehicle>
    <vehicle id="74" depart="51.80">
        <route edges="7:3 3:1 1:0 0:2"/>
    </vehicle>
    <vehicle id="76" depart="53.20">
        <route edges="7:3 3:1 1:0 0:2"/>
    </vehicle>
    <vehicle id="78" depart="54.60">
        <route edges="1:3 3:7"/>
    </vehicle>
    <vehicle id="79" depart="55.30">
        <route edges="7:3 3:1 1:0"/>
    </vehicle>
    <vehicle id="80" depart="56.00">
        <route edges="2:0 0:1"/>
    </vehicle>
    <vehicle id="81" depart="56.70">
        <route edges="1:3 3:7"/>
    </vehicle>
    <vehicle id="82" depart="57.40">
        <route edges="1:5"/>
    </vehicle>
    <vehicle id="84" depart="58.80">
        <route edges="1:3 3:7"/>
    </vehicle>
    <vehicle id="85" depart="59.50">
        <route edges="2:0 0:1 1:3 3:7"/>
    </vehicle>
    <vehicle id="86" depart="60.20">
        <route edges="7:3 3:1 1:0 0:2"/>
    </vehicle>
    <vehicle id="87" depart="60.90">
        <route edges="2:0 0:1 1:3 3:7"/>
    </vehicle>
    <vehicle id="88" depart="61.60">
        <route edges="3:1"/>
    </vehicle>
    <vehicle id="89" depart="62.30">
        <route edges="2:0 0:1"/>
    </vehicle>
    <vehicle id="91" depart="63.70">
        <route edges="2:0 0:1 1:5"/>
    </vehicle>
    <vehicle id="93" depart="65.10">
        <route edges="3:1"/>
    </vehicle>
    <vehicle id="95" depart="66.50">
        <route edges="5:1 1:0"/>
    </vehicle>
    <vehicle id="99" depart="69.30">
        <route edges="3:1 1:0 0:2"/>
    </vehicle>
    <vehicle id="102" depart="71.40">
        <route edges="0:1 1:3 3:7"/>
    </vehicle>
    <vehicle id="103" depart="72.10">
        <route edges="7:3 3:1 1:0 0:2"/>
    </vehicle>
    <vehicle id="104" depart="72.80">
        <route edges="2:0 0:1"/>
    </vehicle>
    <vehicle id="106" depart="74.20">
        <route edges="2:0 0:1 1:3 3:7"/>
    </vehicle>
    <vehicle id="107" depart="74.90">
        <route edges="6:5 5:1 1:3 3:7"/>
    </vehicle>
    <vehicle id="111" depart="77.70">
        <route edges="2:0 0:1 1:3 3:7"/>
    </vehicle>
    <vehicle id="113" depart="79.10">
        <route edges="5:1 1:3 3:7"/>
    </vehicle>
    <vehicle id="114" depart="79.80">
        <route edges="7:3 3:1 1:5"/>
    </vehicle>
    <vehicle id="115" depart="80.50">
        <route edges="2:0 0:1 1:3"/>
    </vehicle>
    <vehicle id="116" depart="81.20">
        <route edges="0:1 1:5"/>
    </vehicle>
    <vehicle id="117" depart="81.90">
        <route edges="2:0 0:1 1:3"/>
    </vehicle>
    <vehicle id="119" depart="83.30">
        <route edges="2:0 0:1 1:5"/>
    </vehicle>
    <vehicle id="121" depart="84.70">
        <route edges="2:0 0:1 1:3 3:7"/>
    </vehicle>
    <vehicle id="122" depart="85.40">
        <route edges="3:1 1:5"/>
    </vehicle>
    <vehicle id="123" depart="86.10">
        <route edges="7:3 3:1 1:5"/>
    </vehicle>
    <vehicle id="126" depart="88.20">
        <route edges="7:3 3:1 1:0"/>
    </vehicle>
    <vehicle id="128" depart="89.60">
        <route edges="2:0 0:1 1:3 3:7"/>
    </vehicle>
    <vehicle id="129" depart="90.30">
        <route edges="2:0 0:1 1:5"/>
    </vehicle>
    <vehicle id="130" depart="91.00">
        <route edges="2:0 0:1 1:3 3:7"/>
    </vehicle>
    <vehicle id="131" depart="91.70">
        <route edges="7:3 3:1 1:0"/>
    </vehicle>
    <vehicle id="132" depart="92.40">
        <route edges="5:1 1:3"/>
    </vehicle>
    <vehicle id="133" depart="93.10">
        <route edges="3:1 1:5"/>
    </vehicle>
    <vehicle id="137" depart="95.90">
        <route edges="7:3 3:1 1:0 0:2"/>
    </vehicle>
    <vehicle id="139" depart="97.30">
        <route edges="2:0 0:1 1:3 3:7"/>
    </vehicle>
    <vehicle id="141" depart="98.70">
        <route edges="6:5 5:1 1:3"/>
    </vehicle>
    <vehicle id="142" depart="99.40">
        <route edges="3:1 1:0 0:2"/>
    </vehicle>
    <vehicle id="143" depart="100.10">
        <route edges="2:0 0:1 1:3 3:7"/>
    </vehicle>
    <vehicle id="144" depart="100.80">
        <route edges="7:3 3:1 1:0"/>
    </vehicle>
    <vehicle id="147" depart="102.90">
        <route edges="1:0"/>
    </vehicle>
    <vehicle id="150" depart="105.00">
        <route edges="7:3 3:1 1:5"/>
    </vehicle>
    <vehicle id="151" depart="105.70">
        <route edges="6:5 5:1 1:3"/>
    </vehicle>
    <vehicle id="154" depart="107.80">
        <route edges="5:1 1:3"/>
    </vehicle>
    <vehicle id="157" depart="109.90">
        <route edges="7:3 3:1 1:0"/>
    </vehicle>
    <vehicle id="159" depart="111.30">
        <route edges="3:1 1:0 0:2"/>
    </vehicle>
    <vehicle id="160" depart="112.00">
        <route edges="3:1"/>
    </vehicle>
    <vehicle id="161" depart="112.70">
        <route edges="0:1 1:5"/>
    </vehicle>
    <vehicle id="162" depart="113.40">
        <route edges="3:1 1:0"/>
    </vehicle>
    <vehicle id="165" depart="115.50">
        <route edges="7:3 3:1 1:0"/>
    </vehicle>
    <vehicle id="166" depart="116.20">
        <route edges="2:0 0:1 1:3 3:7"/>
    </vehicle>
    <vehicle id="170" depart="119.00">
        <route edges="7:3 3:1 1:0"/>
    </vehicle>
    <vehicle id="171" depart="119.70">
        <route edges="7:3 3:1 1:0"/>
    </vehicle>
    <vehicle id="172" depart="120.40">
        <route edges="7:3 3:1"/>
    </vehicle>
    <vehicle id="173" depart="121.10">
        <route edges="2:0 0:1 1:3"/>
    </vehicle>
    <vehicle id="175" depart="122.50">
        <route edges="2:0 0:1 1:5"/>
    </vehicle>
    <vehicle id="176" depart="123.20">
        <route edges="0:1 1:5"/>
    </vehicle>
    <vehicle id="177" depart="123.90">
        <route edges="3:1 1:0"/>
    </vehicle>
    <vehicle id="178" depart="124.60">
        <route edges="1:3"/>
    </vehicle>
    <vehicle id="179" depart="125.30">
        <route edges="2:0 0:1 1:5 5:6"/>
    </vehicle>
    <vehicle id="181" depart="126.70">
        <route edges="1:0"/>
    </vehicle>
    <vehicle id="183" depart="128.10">
        <route edges="6:5 5:1 1:0"/>
    </vehicle>
    <vehicle id="184" depart="128.80">
        <route edges="1:3 3:7"/>
    </vehicle>
    <vehicle id="186" depart="130.20">
        <route edges="6:5 5:1 1:3 3:7"/>
    </vehicle>
    <vehicle id="188" depart="131.60">
        <route edges="7:3 3:1 1:0"/>
    </vehicle>
    <vehicle id="189" depart="132.30">
        <route edges="7:3 3:1 1:0 0:2"/>
    </vehicle>
    <vehicle id="190" depart="133.00">
        <route edges="2:0 0:1 1:5 5:6"/>
    </vehicle>
    <vehicle id="192" depart="134.40">
        <route edges="0:1 1:3"/>
    </vehicle>
    <vehicle id="193" depart="135.10">
        <route edges="1:3"/>
    </vehicle>
    <vehicle id="194" depart="135.80">
        <route edges="7:3 3:1 1:0"/>
    </vehicle>
    <vehicle id="202" depart="141.40">
        <route edges="0:1 1:5"/>
    </vehicle>
    <vehicle id="204" depart="142.80">
        <route edges="1:3"/>
    </vehicle>
    <vehicle id="205" depart="143.50">
        <route edges="3:1 1:0 0:2"/>
    </vehicle>
    <vehicle id="206" depart="144.20">
        <route edges="3:1 1:5 5:6"/>
    </vehicle>
    <vehicle id="207" depart="144.90">
        <route edges="6:5 5:1 1:3 3:7"/>
    </vehicle>
    <vehicle id="211" depart="147.70">
        <route edges="1:0 0:2"/>
    </vehicle>
    <vehicle id="213" depart="149.10">
        <route edges="7:3 3:1"/>
    </vehicle>
    <vehicle id="214" depart="149.80">
        <route edges="2:0 0:1 1:3"/>
    </vehicle>
    <vehicle id="215" depart="150.50">
        <route edges="0:1 1:5 5:6"/>
    </vehicle>
    <vehicle id="219" depart="153.30">
        <route edges="2:0 0:1 1:3 3:7"/>
    </vehicle>
    <vehicle id="220" depart="154.00">
        <route edges="1:0 0:2"/>
    </vehicle>
    <vehicle id="222" depart="155.40">
        <route edges="2:0 0:1 1:3"/>
    </vehicle>
    <vehicle id="223" depart="156.10">
        <route edges="3:1 1:0"/>
    </vehicle>
    <vehicle id="225" depart="157.50">
        <route edges="0:1 1:3 3:7"/>
    </vehicle>
    <vehicle id="226" depart="158.20">
        <route edges="1:0"/>
    </vehicle>
    <vehicle id="227" depart="158.90">
        <route edges="2:0 0:1 1:3 3:7"/>
    </vehicle>
    <vehicle id="230" depart="161.00">
        <route edges="0:1 1:3 3:7"/>
    </vehicle>
    <vehicle id="234" depart="163.80">
        <route edges="0:1 1:3 3:7"/>
    </vehicle>
    <vehicle id="235" depart="164.50">
        <route edges="3:1 1:0"/>
    </vehicle>
    <vehicle id="236" depart="165.20">
        <route edges="0:1 1:3 3:7"/>
    </vehicle>
    <vehicle id="239" depart="167.30">
        <route edges="1:5"/>
    </vehicle>
    <vehicle id="240" depart="168.00">
        <route edges="0:1 1:3"/>
    </vehicle>
    <vehicle id="242" depart="169.40">
        <route edges="2:0 0:1 1:3"/>
    </vehicle>
    <vehicle id="246" depart="172.20">
        <route edges="3:1"/>
    </vehicle>
    <vehicle id="247" depart="172.90">
        <route edges="6:5 5:1 1:3 3:7"/>
    </vehicle>
    <vehicle id="248" depart="173.60">
        <route edges="1:3 3:7"/>
    </vehicle>
    <vehicle id="249" depart="174.30">
        <route edges="7:3 3:1 1:0 0:2"/>
    </vehicle>
    <vehicle id="251" depart="175.70">
        <route edges="7:3 3:1 1:0 0:2"/>
    </vehicle>
    <vehicle id="252" depart="176.40">
        <route edges="1:5 5:6"/>
    </vehicle>
    <vehicle id="259" depart="181.30">
        <route edges="3:1 1:0 0:2"/>
    </vehicle>
    <vehicle id="260" depart="182.00">
        <route edges="6:5 5:1 1:0 0:2"/>
    </vehicle>
    <vehicle id="262" depart="183.40">
        <route edges="7:3 3:1 1:5 5:6"/>
    </vehicle>
    <vehicle id="268" depart="187.60">
        <route edges="7:3 3:1 1:0 0:2"/>
    </vehicle>
    <vehicle id="269" depart="188.30">
        <route edges="6:5 5:1"/>
    </vehicle>
    <vehicle id="274" depart="191.80">
        <route edges="2:0 0:1 1:5 5:6"/>
    </vehicle>
    <vehicle id="275" depart="192.50">
        <route edges="3:1 1:0 0:2"/>
    </vehicle>
    <vehicle id="277" depart="193.90">
        <route edges="0:1 1:3 3:7"/>
    </vehicle>
    <vehicle id="279" depart="195.30">
        <route edges="6:5 5:1 1:0"/>
    </vehicle>
    <vehicle id="282" depart="197.40">
        <route edges="2:0 0:1"/>
    </vehicle>
    <vehicle id="283" depart="198.10">
        <route edges="3:1 1:0 0:2"/>
    </vehicle>
    <vehicle id="284" depart="198.80">
        <route edges="3:1 1:0"/>
    </vehicle>
    <vehicle id="285" depart="199.50">
        <route edges="6:5 5:1"/>
    </vehicle>
    <vehicle id="288" depart="201.60">
        <route edges="1:3 3:7"/>
    </vehicle>
    <vehicle id="289" depart="202.30">
        <route edges="0:1"/>
    </vehicle>
    <vehicle id="291" depart="203.70">
        <route edges="1:3 3:7"/>
    </vehicle>
    <vehicle id="293" depart="205.10">
        <route edges="3:1"/>
    </vehicle>
    <vehicle id="294" depart="205.80">
        <route edges="6:5 5:1 1:3 3:7"/>
    </vehicle>
    <vehicle id="297" depart="207.90">
        <route edges="6:5 5:1 1:0"/>
    </vehicle>
    <vehicle id="299" depart="209.30">
        <route edges="5:1 1:0"/>
    </vehicle>
    <vehicle id="301" depart="210.70">
        <route edges="5:1 1:3 3:7"/>
    </vehicle>
    <vehicle id="306" depart="214.20">
        <route edges="5:1 1:3 3:7"/>
    </vehicle>
    <vehicle id="309" depart="216.30">
        <route edges="0:1 1:5"/>
    </vehicle>
    <vehicle id="311" depart="217.70">
        <route edges="2:0 0:1 1:5"/>
    </vehicle>
    <vehicle id="314" depart="219.80">
        <route edges="5:1 1:3 3:7"/>
    </vehicle>
    <vehicle id="316" depart="221.20">
        <route edges="1:3 3:7"/>
    </vehicle>
    <vehicle id="318" depart="222.60">
        <route edges="6:5 5:1 1:0 0:2"/>
    </vehicle>
    <vehicle id="319" depart="223.30">
        <route edges="0:1 1:3 3:7"/>
    </vehicle>
    <vehicle id="320" depart="224.00">
        <route edges="5:1 1:0"/>
    </vehicle>
    <vehicle id="321" depart="224.70">
        <route edges="2:0 0:1 1:3 3:7"/>
    </vehicle>
    <vehicle id="322" depart="225.40">
        <route edges="0:1"/>
    </vehicle>
    <vehicle id="324" depart="226.80">
        <route edges="1:3 3:7"/>
    </vehicle>
    <vehicle id="326" depart="228.20">
        <route edges="1:0"/>
    </vehicle>
    <vehicle id="329" depart="230.30">
        <route edges="5:1 1:0"/>
    </vehicle>
    <vehicle id="330" depart="231.00">
        <route edges="0:1 1:3 3:7"/>
    </vehicle>
    <vehicle id="331" depart="231.70">
        <route edges="1:0"/>
    </vehicle>
    <vehicle id="336" depart="235.20">
        <route edges="3:1 1:5 5:6"/>
    </vehicle>
    <vehicle id="337" depart="235.90">
        <route edges="7:3 3:1 1:0 0:2"/>
    </vehicle>
    <vehicle id="338" depart="236.60">
        <route edges="3:1 1:0 0:2"/>
    </vehicle>
    <vehicle id="341" depart="238.70">
        <route edges="7:3 3:1 1:5"/>
    </vehicle>
    <vehicle id="344" depart="240.80">
        <route edges="6:5 5:1 1:3 3:7"/>
    </vehicle>
    <vehicle id="345" depart="241.50">
        <route edges="2:0 0:1 1:5 5:6"/>
    </vehicle>
    <vehicle id="347" depart="242.90">
        <route edges="3:1 1:0 0:2"/>
    </vehicle>
    <vehicle id="350" depart="245.00">
        <route edges="1:5"/>
    </vehicle>
    <vehicle id="352" depart="246.40">
        <route edges="2:0 0:1 1:3 3:7"/>
    </vehicle>
    <vehicle id="353" depart="247.10">
        <route edges="0:1 1:3"/>
    </vehicle>
    <vehicle id="354" depart="247.80">
        <route edges="7:3 3:1 1:5"/>
    </vehicle>
    <vehicle id="355" depart="248.50">
        <route edges="3:1 1:0 0:2"/>
    </vehicle>
    <vehicle id="357" depart="249.90">
        <route edges="1:5"/>
    </vehicle>
    <vehicle id="358" depart="250.60">
        <route edges="2:0 0:1 1:3 3:7"/>
    </vehicle>
    <vehicle id="361" depart="252.70">
        <route edges="6:5 5:1 1:0"/>
    </vehicle>
    <vehicle id="363" depart="254.10">
        <route edges="7:3 3:1 1:0 0:2"/>
    </vehicle>
    <vehicle id="364" depart="254.80">
        <route edges="1:3"/>
    </vehicle>
    <vehicle id="368" depart="257.60">
        <route edges="6:5 5:1 1:0"/>
    </vehicle>
    <vehicle id="369" depart="258.30">
        <route edges="7:3 3:1 1:5"/>
    </vehicle>
    <vehicle id="371" depart="259.70">
        <route edges="3:1 1:0 0:2"/>
    </vehicle>
    <vehicle id="374" depart="261.80">
        <route edges="7:3 3:1 1:5"/>
    </vehicle>
    <vehicle id="378" depart="264.60">
        <route edges="6:5 5:1 1:3 3:7"/>
    </vehicle>
    <vehicle id="379" depart="265.30">
        <route edges="2:0 0:1 1:3 3:7"/>
    </vehicle>
    <vehicle id="381" depart="266.70">
        <route edges="1:3 3:7"/>
    </vehicle>
    <vehicle id="385" depart="269.50">
        <route edges="6:5 5:1 1:0 0:2"/>
    </vehicle>
    <vehicle id="386" depart="270.20">
        <route edges="1:0 0:2"/>
    </vehicle>
    <vehicle id="387" depart="270.90">
        <route edges="7:3 3:1"/>
    </vehicle>
    <vehicle id="394" depart="275.80">
        <route edges="1:0 0:2"/>
    </vehicle>
    <vehicle id="395" depart="276.50">
        <route edges="7:3 3:1 1:0 0:2"/>
    </vehicle>
    <vehicle id="397" depart="277.90">
        <route edges="2:0 0:1 1:3"/>
    </vehicle>
    <vehicle id="399" depart="279.30">
        <route edges="6:5 5:1 1:3"/>
    </vehicle>
    <vehicle id="401" depart="280.70">
        <route edges="7:3 3:1 1:0 0:2"/>
    </vehicle>
    <vehicle id="402" depart="281.40">
        <route edges="3:1 1:5 5:6"/>
    </vehicle>
    <vehicle id="404" depart="282.80">
        <route edges="7:3 3:1 1:5"/>
    </vehicle>
    <vehicle id="406" depart="284.20">
        <route edges="5:1 1:0 0:2"/>
    </vehicle>
    <vehicle id="419" depart="293.30">
        <route edges="7:3 3:1"/>
    </vehicle>
    <vehicle id="421" depart="294.70">
        <route edges="7:3 3:1"/>
    </vehicle>
    <vehicle id="423" depart="296.10">
        <route edges="5:1 1:0"/>
    </vehicle>
    <vehicle id="424" depart="296.80">
        <route edges="7:3 3:1 1:5 5:6"/>
    </vehicle>
    <vehicle id="425" depart="297.50">
        <route edges="2:0 0:1 1:3"/>
    </vehicle>
    <vehicle id="426" depart="298.20">
        <route edges="7:3 3:1 1:0"/>
    </vehicle>
    <vehicle id="427" depart="298.90">
        <route edges="2:0 0:1 1:5"/>
    </vehicle>
    <vehicle id="429" depart="300.30">
        <route edges="2:0 0:1 1:5 5:6"/>
    </vehicle>
    <vehicle id="432" depart="302.40">
        <route edges="6:5 5:1 1:0 0:2"/>
    </vehicle>
    <vehicle id="436" depart="305.20">
        <route edges="6:5 5:1 1:3 3:7"/>
    </vehicle>
    <vehicle id="437" depart="305.90">
        <route edges="2:0 0:1"/>
    </vehicle>
    <vehicle id="441" depart="308.70">
        <route edges="6:5 5:1 1:3 3:7"/>
    </vehicle>
    <vehicle id="442" depart="309.40">
        <route edges="7:3 3:1 1:0 0:2"/>
    </vehicle>
    <vehicle id="443" depart="310.10">
        <route edges="0:1 1:3 3:7"/>
    </vehicle>
    <vehicle id="444" depart="310.80">
        <route edges="0:1 1:5 5:6"/>
    </vehicle>
    <vehicle id="446" depart="312.20">
        <route edges="5:1 1:3 3:7"/>
    </vehicle>
    <vehicle id="448" depart="313.60">
        <route edges="1:0 0:2"/>
    </vehicle>
    <vehicle id="449" depart="314.30">
        <route edges="7:3 3:1 1:5 5:6"/>
    </vehicle>
    <vehicle id="451" depart="315.70">
        <route edges="7:3 3:1 1:0 0:2"/>
    </vehicle>
    <vehicle id="452" depart="316.40">
        <route edges="2:0 0:1 1:5"/>
    </vehicle>
    <vehicle id="453" depart="317.10">
        <route edges="3:1 1:0 0:2"/>
    </vehicle>
    <vehicle id="454" depart="317.80">
        <route edges="3:1 1:0 0:2"/>
    </vehicle>
    <vehicle id="456" depart="319.20">
        <route edges="5:1 1:3 3:7"/>
    </vehicle>
    <vehicle id="459" depart="321.30">
        <route edges="7:3 3:1 1:0"/>
    </vehicle>
    <vehicle id="462" depart="323.40">
        <route edges="7:3 3:1 1:0 0:2"/>
    </vehicle>
    <vehicle id="463" depart="324.10">
        <route edges="0:1 1:3"/>
    </vehicle>
    <vehicle id="464" depart="324.80">
        <route edges="2:0 0:1 1:3"/>
    </vehicle>
    <vehicle id="465" depart="325.50">
        <route edges="1:0 0:2"/>
    </vehicle>
    <vehicle id="466" depart="326.20">
        <route edges="7:3 3:1"/>
    </vehicle>
    <vehicle id="467" depart="326.90">
        <route edges="1:0 0:2"/>
    </vehicle>
    <vehicle id="469" depart="328.30">
        <route edges="2:0 0:1 1:3"/>
    </vehicle>
    <vehicle id="472" depart="330.40">
        <route edges="6:5 5:1 1:3 3:7"/>
    </vehicle>
    <vehicle id="478" depart="334.60">
        <route edges="0:1 1:3"/>
    </vehicle>
    <vehicle id="479" depart="335.30">
        <route edges="2:0 0:1 1:3 3:7"/>
    </vehicle>
    <vehicle id="481" depart="336.70">
        <route edges="2:0 0:1"/>
    </vehicle>
    <vehicle id="483" depart="338.10">
        <route edges="0:1"/>
    </vehicle>
    <vehicle id="484" depart="338.80">
        <route edges="2:0 0:1 1:5 5:6"/>
    </vehicle>
    <vehicle id="485" depart="339.50">
        <route edges="2:0 0:1 1:5 5:6"/>
    </vehicle>
    <vehicle id="495" depart="346.50">
        <route edges="0:1 1:3 3:7"/>
    </vehicle>
    <vehicle id="497" depart="347.90">
        <route edges="0:1 1:3 3:7"/>
    </vehicle>
    <vehicle id="498" depart="348.60">
        <route edges="2:0 0:1 1:3 3:7"/>
    </vehicle>
    <vehicle id="499" depart="349.30">
        <route edges="0:1 1:3 3:7"/>
    </vehicle>
    <vehicle id="500" depart="350.00">
        <route edges="3:1"/>
    </vehicle>
    <vehicle id="506" depart="354.20">
        <route edges="1:3"/>
    </vehicle>
    <vehicle id="508" depart="355.60">
        <route edges="2:0 0:1 1:3 3:7"/>
    </vehicle>
    <vehicle id="512" depart="358.40">
        <route edges="3:1 1:0 0:2"/>
    </vehicle>
    <vehicle id="515" depart="360.50">
        <route edges="7:3 3:1"/>
    </vehicle>
    <vehicle id="517" depart="361.90">
        <route edges="2:0 0:1 1:3 3:7"/>
    </vehicle>
    <vehicle id="519" depart="363.30">
        <route edges="3:1 1:5 5:6"/>
    </vehicle>
    <vehicle id="520" depart="364.00">
        <route edges="3:1 1:5 5:6"/>
    </vehicle>
    <vehicle id="521" depart="364.70">
        <route edges="6:5 5:1 1:3 3:7"/>
    </vehicle>
    <vehicle id="523" depart="366.10">
        <route edges="0:1 1:3 3:7"/>
    </vehicle>
    <vehicle id="525" depart="367.50">
        <route edges="7:3 3:1 1:0 0:2"/>
    </vehicle>
    <vehicle id="529" depart="370.30">
        <route edges="7:3 3:1 1:0 0:2"/>
    </vehicle>
    <vehicle id="532" depart="372.40">
        <route edges="2:0 0:1"/>
    </vehicle>
    <vehicle id="538" depart="376.60">
        <route edges="7:3 3:1 1:5 5:6"/>
    </vehicle>
    <vehicle id="539" depart="377.30">
        <route edges="0:1"/>
    </vehicle>
    <vehicle id="543" depart="380.10">
        <route edges="3:1 1:0 0:2"/>
    </vehicle>
    <vehicle id="544" depart="380.80">
        <route edges="7:3 3:1 1:5 5:6"/>
    </vehicle>
    <vehicle id="548" depart="383.60">
        <route edges="0:1 1:5"/>
    </vehicle>
    <vehicle id="550" depart="385.00">
        <route edges="1:0"/>
    </vehicle>
    <vehicle id="552" depart="386.40">
        <route edges="7:3 3:1 1:5 5:6"/>
    </vehicle>
    <vehicle id="553" depart="387.10">
        <route edges="2:0 0:1 1:3 3:7"/>
    </vehicle>
    <vehicle id="554" depart="387.80">
        <route edges="1:0 0:2"/>
    </vehicle>
    <vehicle id="555" depart="388.50">
        <route edges="2:0 0:1 1:5 5:6"/>
    </vehicle>
    <vehicle id="556" depart="389.20">
        <route edges="6:5 5:1 1:3 3:7"/>
    </vehicle>
    <vehicle id="557" depart="389.90">
        <route edges="7:3 3:1"/>
    </vehicle>
    <vehicle id="559" depart="391.30">
        <route edges="2:0 0:1 1:3 3:7"/>
    </vehicle>
    <vehicle id="560" depart="392.00">
        <route edges="2:0 0:1"/>
    </vehicle>
    <vehicle id="565" depart="395.50">
        <route edges="5:1 1:0"/>
    </vehicle>
    <vehicle id="568" depart="397.60">
        <route edges="7:3 3:1 1:0 0:2"/>
    </vehicle>
    <vehicle id="569" depart="398.30">
        <route edges="7:3 3:1"/>
    </vehicle>
    <vehicle id="570" depart="399.00">
        <route edges="0:1 1:3 3:7"/>
    </vehicle>
    <vehicle id="571" depart="399.70">
        <route edges="1:0 0:2"/>
    </vehicle>
    <vehicle id="572" depart="400.40">
        <route edges="2:0 0:1 1:5"/>
    </vehicle>
    <vehicle id="576" depart="403.20">
        <route edges="3:1 1:0"/>
    </vehicle>
    <vehicle id="582" depart="407.40">
        <route edges="3:1 1:0 0:2"/>
    </vehicle>
    <vehicle id="584" depart="408.80">
        <route edges="3:1 1:5 5:6"/>
    </vehicle>
    <vehicle id="586" depart="410.20">
        <route edges="1:0"/>
    </vehicle>
    <vehicle id="587" depart="410.90">
        <route edges="3:1 1:0"/>
    </vehicle>
    <vehicle id="589" depart="412.30">
        <route edges="7:3 3:1 1:0"/>
    </vehicle>
    <vehicle id="591" depart="413.70">
        <route edges="6:5 5:1 1:3"/>
    </vehicle>
    <vehicle id="593" depart="415.10">
        <route edges="2:0 0:1 1:3 3:7"/>
    </vehicle>
    <vehicle id="596" depart="417.20">
        <route edges="0:1 1:5 5:6"/>
    </vehicle>
    <vehicle id="598" depart="418.60">
        <route edges="7:3 3:1 1:0 0:2"/>
    </vehicle>
    <vehicle id="599" depart="419.30">
        <route edges="7:3 3:1 1:0 0:2"/>
    </vehicle>
    <vehicle id="601" depart="420.70">
        <route edges="2:0 0:1 1:3 3:7"/>
    </vehicle>
    <vehicle id="606" depart="424.20">
        <route edges="0:1"/>
    </vehicle>
    <vehicle id="610" depart="427.00">
        <route edges="1:0"/>
    </vehicle>
    <vehicle id="612" depart="428.40">
        <route edges="6:5 5:1 1:0 0:2"/>
    </vehicle>
    <vehicle id="613" depart="429.10">
        <route edges="6:5 5:1 1:3 3:7"/>
    </vehicle>
    <vehicle id="617" depart="431.90">
        <route edges="7:3 3:1 1:5 5:6"/>
    </vehicle>
    <vehicle id="618" depart="432.60">
        <route edges="7:3 3:1 1:0 0:2"/>
    </vehicle>
    <vehicle id="620" depart="434.00">
        <route edges="2:0 0:1 1:3 3:7"/>
    </vehicle>
    <vehicle id="623" depart="436.10">
        <route edges="6:5 5:1 1:3"/>
    </vehicle>
    <vehicle id="624" depart="436.80">
        <route edges="7:3 3:1 1:5 5:6"/>
    </vehicle>
    <vehicle id="625" depart="437.50">
        <route edges="3:1 1:5 5:6"/>
    </vehicle>
    <vehicle id="626" depart="438.20">
        <route edges="1:3"/>
    </vehicle>
    <vehicle id="627" depart="438.90">
        <route edges="2:0 0:1 1:3 3:7"/>
    </vehicle>
    <vehicle id="628" depart="439.60">
        <route edges="6:5 5:1 1:0"/>
    </vehicle>
    <vehicle id="633" depart="443.10">
        <route edges="3:1 1:0 0:2"/>
    </vehicle>
    <vehicle id="635" depart="444.50">
        <route edges="7:3 3:1 1:5 5:6"/>
    </vehicle>
    <vehicle id="637" depart="445.90">
        <route edges="6:5 5:1 1:0"/>
    </vehicle>
    <vehicle id="639" depart="447.30">
        <route edges="2:0 0:1 1:3 3:7"/>
    </vehicle>
    <vehicle id="640" depart="448.00">
        <route edges="2:0 0:1 1:5 5:6"/>
    </vehicle>
    <vehicle id="643" depart="450.10">
        <route edges="2:0 0:1 1:3 3:7"/>
    </vehicle>
    <vehicle id="644" depart="450.80">
        <route edges="5:1 1:3 3:7"/>
    </vehicle>
    <vehicle id="645" depart="451.50">
        <route edges="6:5 5:1 1:0 0:2"/>
    </vehicle>
    <vehicle id="647" depart="452.90">
        <route edges="3:1 1:5 5:6"/>
    </vehicle>
    <vehicle id="648" depart="453.60">
        <route edges="5:1 1:0 0:2"/>
    </vehicle>
    <vehicle id="649" depart="454.30">
        <route edges="0:1"/>
    </vehicle>
    <vehicle id="651" depart="455.70">
        <route edges="3:1 1:0 0:2"/>
    </vehicle>
    <vehicle id="655" depart="458.50">
        <route edges="7:3 3:1 1:0 0:2"/>
    </vehicle>
    <vehicle id="658" depart="460.60">
        <route edges="5:1 1:0"/>
    </vehicle>
    <vehicle id="659" depart="461.30">
        <route edges="3:1"/>
    </vehicle>
    <vehicle id="660" depart="462.00">