<?xml version="1.0" encoding="UTF-8"?>

<!-- generated on Thu Feb 13 12:39:20 2014 by SUMO duarouter Version 0.18.0
<?xml version="1.0" encoding="UTF-8"?>

<configuration xmlns:xsi="http://www.w3.org/2001/XMLSchema-instance" xsi:noNamespaceSchemaLocation="http://sumo.sf.net/xsd/duarouterConfiguration.xsd">

    <input>
        <net-file value="simpleT.net.xml"/>
        <trip-files value="experimentos/simpleT.p0.4.9.trips.xml"/>
    </input>

    <output>
        <output-file value="experimentos/simpleT.p0.4.9.rou.xml"/>
    </output>

    <processing>
        <ignore-errors value="true"/>
    </processing>

    <random_number>
        <random value="true"/>
    </random_number>

</configuration>
-->

<routes xmlns:xsi="http://www.w3.org/2001/XMLSchema-instance" xsi:noNamespaceSchemaLocation="http://sumo.sf.net/xsd/routes_file.xsd">
    <vehicle id="2" depart="0.80">
        <route edges="2:0 0:1"/>
    </vehicle>
    <vehicle id="4" depart="1.60">
        <route edges="1:0 0:2"/>
    </vehicle>
    <vehicle id="5" depart="2.00">
        <route edges="1:3 3:7"/>
    </vehicle>
    <vehicle id="7" depart="2.80">
        <route edges="7:3 3:1 1:5 5:6"/>
    </vehicle>
    <vehicle id="8" depart="3.20">
        <route edges="2:0 0:1 1:5"/>
    </vehicle>
    <vehicle id="9" depart="3.60">
        <route edges="7:3 3:1 1:0 0:2"/>
    </vehicle>
    <vehicle id="10" depart="4.00">
        <route edges="3:1 1:5 5:6"/>
    </vehicle>
    <vehicle id="11" depart="4.40">
        <route edges="2:0 0:1 1:3 3:7"/>
    </vehicle>
    <vehicle id="12" depart="4.80">
        <route edges="1:5"/>
    </vehicle>
    <vehicle id="14" depart="5.60">
        <route edges="3:1 1:0"/>
    </vehicle>
    <vehicle id="15" depart="6.00">
        <route edges="6:5 5:1 1:3 3:7"/>
    </vehicle>
    <vehicle id="17" depart="6.80">
        <route edges="6:5 5:1 1:0 0:2"/>
    </vehicle>
    <vehicle id="19" depart="7.60">
        <route edges="7:3 3:1"/>
    </vehicle>
    <vehicle id="20" depart="8.00">
        <route edges="2:0 0:1 1:5"/>
    </vehicle>
    <vehicle id="23" depart="9.20">
        <route edges="3:1 1:0 0:2"/>
    </vehicle>
    <vehicle id="24" depart="9.60">
        <route edges="5:1 1:3 3:7"/>
    </vehicle>
    <vehicle id="25" depart="10.00">
        <route edges="2:0 0:1 1:3 3:7"/>
    </vehicle>
    <vehicle id="26" depart="10.40">
        <route edges="7:3 3:1"/>
    </vehicle>
    <vehicle id="28" depart="11.20">
        <route edges="1:0 0:2"/>
    </vehicle>
    <vehicle id="29" depart="11.60">
        <route edges="2:0 0:1"/>
    </vehicle>
    <vehicle id="30" depart="12.00">
        <route edges="2:0 0:1"/>
    </vehicle>
    <vehicle id="32" depart="12.80">
        <route edges="7:3 3:1 1:0 0:2"/>
    </vehicle>
    <vehicle id="33" depart="13.20">
        <route edges="6:5 5:1 1:3"/>
    </vehicle>
    <vehicle id="34" depart="13.60">
        <route edges="2:0 0:1 1:5 5:6"/>
    </vehicle>
    <vehicle id="35" depart="14.00">
        <route edges="2:0 0:1 1:3 3:7"/>
    </vehicle>
    <vehicle id="36" depart="14.40">
        <route edges="3:1 1:5"/>
    </vehicle>
    <vehicle id="37" depart="14.80">
        <route edges="6:5 5:1 1:0 0:2"/>
    </vehicle>
    <vehicle id="38" depart="15.20">
        <route edges="6:5 5:1 1:3 3:7"/>
    </vehicle>
    <vehicle id="39" depart="15.60">
        <route edges="7:3 3:1 1:0 0:2"/>
    </vehicle>
    <vehicle id="42" depart="16.80">
        <route edges="7:3 3:1 1:5 5:6"/>
    </vehicle>
    <vehicle id="44" depart="17.60">
        <route edges="3:1 1:0 0:2"/>
    </vehicle>
    <vehicle id="48" depart="19.20">
        <route edges="2:0 0:1 1:3 3:7"/>
    </vehicle>
    <vehicle id="53" depart="21.20">
        <route edges="3:1 1:0"/>
    </vehicle>
    <vehicle id="54" depart="21.60">
        <route edges="7:3 3:1 1:0 0:2"/>
    </vehicle>
    <vehicle id="56" depart="22.40">
        <route edges="6:5 5:1 1:0"/>
    </vehicle>
    <vehicle id="57" depart="22.80">
        <route edges="3:1"/>
    </vehicle>
    <vehicle id="63" depart="25.20">
        <route edges="0:1"/>
    </vehicle>
    <vehicle id="64" depart="25.60">
        <route edges="7:3 3:1 1:0"/>
    </vehicle>
    <vehicle id="66" depart="26.40">
        <route edges="7:3 3:1 1:5 5:6"/>
    </vehicle>
    <vehicle id="68" depart="27.20">
        <route edges="1:3"/>
    </vehicle>
    <vehicle id="74" depart="29.60">
        <route edges="2:0 0:1 1:3 3:7"/>
    </vehicle>
    <vehicle id="76" depart="30.40">
        <route edges="3:1 1:0"/>
    </vehicle>
    <vehicle id="78" depart="31.20">
        <route edges="2:0 0:1 1:3 3:7"/>
    </vehicle>
    <vehicle id="80" depart="32.00">
        <route edges="3:1 1:0 0:2"/>
    </vehicle>
    <vehicle id="81" depart="32.40">
        <route edges="2:0 0:1 1:3"/>
    </vehicle>
    <vehicle id="82" depart="32.80">
        <route edges="2:0 0:1 1:5 5:6"/>
    </vehicle>
    <vehicle id="86" depart="34.40">
        <route edges="6:5 5:1 1:0"/>
    </vehicle>
    <vehicle id="89" depart="35.60">
        <route edges="0:1"/>
    </vehicle>
    <vehicle id="90" depart="36.00">
        <route edges="6:5 5:1 1:3 3:7"/>
    </vehicle>
    <vehicle id="91" depart="36.40">
        <route edges="2:0 0:1 1:3 3:7"/>
    </vehicle>
    <vehicle id="92" depart="36.80">
        <route edges="7:3 3:1 1:5 5:6"/>
    </vehicle>
    <vehicle id="93" depart="37.20">
        <route edges="5:1 1:3 3:7"/>
    </vehicle>
    <vehicle id="95" depart="38.00">
        <route edges="0:1 1:5 5:6"/>
    </vehicle>
    <vehicle id="97" depart="38.80">
        <route edges="6:5 5:1 1:0"/>
    </vehicle>
    <vehicle id="98" depart="39.20">
        <route edges="3:1 1:5"/>
    </vehicle>
    <vehicle id="99" depart="39.60">
        <route edges="6:5 5:1 1:3 3:7"/>
    </vehicle>
    <vehicle id="100" depart="40.00">
        <route edges="7:3 3:1 1:0 0:2"/>
    </vehicle>
    <vehicle id="101" depart="40.40">
        <route edges="7:3 3:1 1:0"/>
    </vehicle>
    <vehicle id="102" depart="40.80">
        <route edges="7:3 3:1 1:0"/>
    </vehicle>
    <vehicle id="104" depart="41.60">
        <route edges="3:1 1:0 0:2"/>
    </vehicle>
    <vehicle id="107" depart="42.80">
        <route edges="7:3 3:1 1:0 0:2"/>
    </vehicle>
    <vehicle id="108" depart="43.20">
        <route edges="6:5 5:1 1:3 3:7"/>
    </vehicle>
    <vehicle id="110" depart="44.00">
        <route edges="3:1 1:0"/>
    </vehicle>
    <vehicle id="115" depart="46.00">
        <route edges="2:0 0:1"/>
    </vehicle>
    <vehicle id="117" depart="46.80">
        <route edges="7:3 3:1"/>
    </vehicle>
    <vehicle id="120" depart="48.00">
        <route edges="1:3 3:7"/>
    </vehicle>
    <vehicle id="121" depart="48.40">
        <route edges="5:1"/>
    </vehicle>
    <vehicle id="123" depart="49.20">
        <route edges="0:1 1:3 3:7"/>
    </vehicle>
    <vehicle id="124" depart="49.60">
        <route edges="2:0 0:1 1:3 3:7"/>
    </vehicle>
    <vehicle id="125" depart="50.00">
        <route edges="7:3 3:1 1:0 0:2"/>
    </vehicle>
    <vehicle id="126" depart="50.40">
        <route edges="2:0 0:1 1:5"/>
    </vehicle>
    <vehicle id="127" depart="50.80">
        <route edges="5:1 1:3 3:7"/>
    </vehicle>
    <vehicle id="128" depart="51.20">
        <route edges="5:1"/>
    </vehicle>
    <vehicle id="129" depart="51.60">
        <route edges="5:1 1:0"/>
    </vehicle>
    <vehicle id="130" depart="52.00">
        <route edges="2:0 0:1 1:3 3:7"/>
    </vehicle>
    <vehicle id="132" depart="52.80">
        <route edges="2:0 0:1"/>
    </vehicle>
    <vehicle id="134" depart="53.60">
        <route edges="7:3 3:1"/>
    </vehicle>
    <vehicle id="135" depart="54.00">
        <route edges="6:5 5:1 1:0"/>
    </vehicle>
    <vehicle id="138" depart="55.20">
        <route edges="1:0"/>
    </vehicle>
    <vehicle id="139" depart="55.60">
        <route edges="0:1"/>
    </vehicle>
    <vehicle id="140" depart="56.00">
        <route edges="2:0 0:1 1:5 5:6"/>
    </vehicle>
    <vehicle id="149" depart="59.60">
        <route edges="2:0 0:1"/>
    </vehicle>
    <vehicle id="150" depart="60.00">
        <route edges="5:1 1:3 3:7"/>
    </vehicle>
    <vehicle id="151" depart="60.40">
        <route edges="7:3 3:1 1:5 5:6"/>
    </vehicle>
    <vehicle id="152" depart="60.80">
        <route edges="7:3 3:1"/>
    </vehicle>
    <vehicle id="156" depart="62.40">
        <route edges="2:0 0:1 1:3 3:7"/>
    </vehicle>
    <vehicle id="157" depart="62.80">
        <route edges="1:3"/>
    </vehicle>
    <vehicle id="159" depart="63.60">
        <route edges="6:5 5:1 1:0 0:2"/>
    </vehicle>
    <vehicle id="161" depart="64.40">
        <route edges="7:3 3:1 1:0 0:2"/>
    </vehicle>
    <vehicle id="162" depart="64.80">
        <route edges="2:0 0:1 1:3 3:7"/>
    </vehicle>
    <vehicle id="163" depart="65.20">
        <route edges="1:3 3:7"/>
    </vehicle>
    <vehicle id="167" depart="66.80">
        <route edges="3:1"/>
    </vehicle>
    <vehicle id="170" depart="68.00">
        <route edges="6:5 5:1 1:0"/>
    </vehicle>
    <vehicle id="174" depart="69.60">
        <route edges="2:0 0:1 1:3 3:7"/>
    </vehicle>
    <vehicle id="175" depart="70.00">
        <route edges="0:1 1:3"/>
    </vehicle>
    <vehicle id="176" depart="70.40">
        <route edges="1:0"/>
    </vehicle>
    <vehicle id="178" depart="71.20">
        <route edges="1:3"/>
    </vehicle>
    <vehicle id="179" depart="71.60">
        <route edges="7:3 3:1 1:5 5:6"/>
    </vehicle>
    <vehicle id="184" depart="73.60">
        <route edges="0:1 1:5 5:6"/>
    </vehicle>
    <vehicle id="186" depart="74.40">
        <route edges="3:1 1:0"/>
    </vehicle>
    <vehicle id="188" depart="75.20">
        <route edges="6:5 5:1 1:3 3:7"/>
    </vehicle>
    <vehicle id="192" depart="76.80">
        <route edges="1:0"/>
    </vehicle>
    <vehicle id="193" depart="77.20">
        <route edges="2:0 0:1 1:3 3:7"/>
    </vehicle>
    <vehicle id="195" depart="78.00">
        <route edges="6:5 5:1 1:0"/>
    </vehicle>
    <vehicle id="196" depart="78.40">
        <route edges="7:3 3:1 1:0 0:2"/>
    </vehicle>
    <vehicle id="200" depart="80.00">
        <route edges="2:0 0:1 1:3 3:7"/>
    </vehicle>
    <vehicle id="201" depart="80.40">
        <route edges="1:3 3:7"/>
    </vehicle>
    <vehicle id="202" depart="80.80">
        <route edges="6:5 5:1 1:3 3:7"/>
    </vehicle>
    <vehicle id="203" depart="81.20">
        <route edges="2:0 0:1"/>
    </vehicle>
    <vehicle id="207" depart="82.80">
        <route edges="3:1"/>
    </vehicle>
    <vehicle id="208" depart="83.20">
        <route edges="7:3 3:1"/>
    </vehicle>
    <vehicle id="209" depart="83.60">
        <route edges="0:1 1:3 3:7"/>
    </vehicle>
    <vehicle id="210" depart="84.00">
        <route edges="7:3 3:1 1:0"/>
    </vehicle>
    <vehicle id="211" depart="84.40">
        <route edges="2:0 0:1 1:3 3:7"/>
    </vehicle>
    <vehicle id="212" depart="84.80">
        <route edges="6:5 5:1 1:0 0:2"/>
    </vehicle>
    <vehicle id="213" depart="85.20">
        <route edges="3:1 1:0 0:2"/>
    </vehicle>
    <vehicle id="215" depart="86.00">
        <route edges="0:1"/>
    </vehicle>
    <vehicle id="216" depart="86.40">
        <route edges="5:1 1:3 3:7"/>
    </vehicle>
    <vehicle id="218" depart="87.20">
        <route edges="1:0"/>
    </vehicle>
    <vehicle id="219" depart="87.60">
        <route edges="7:3 3:1 1:0"/>
    </vehicle>
    <vehicle id="223" depart="89.20">
        <route edges="7:3 3:1"/>
    </vehicle>
    <vehicle id="224" depart="89.60">
        <route edges="6:5 5:1 1:3 3:7"/>
    </vehicle>
    <vehicle id="227" depart="90.80">
        <route edges="2:0 0:1 1:3 3:7"/>
    </vehicle>
    <vehicle id="230" depart="92.00">
        <route edges="3:1 1:5"/>
    </vehicle>
    <vehicle id="231" depart="92.40">
        <route edges="3:1 1:0 0:2"/>
    </vehicle>
    <vehicle id="233" depart="93.20">
        <route edges="1:3"/>
    </vehicle>
    <vehicle id="234" depart="93.60">
        <route edges="2:0 0:1 1:3"/>
    </vehicle>
    <vehicle id="236" depart="94.40">
        <route edges="0:1 1:3"/>
    </vehicle>
    <vehicle id="238" depart="95.20">
        <route edges="2:0 0:1 1:3"/>
    </vehicle>
    <vehicle id="242" depart="96.80">
        <route edges="2:0 0:1"/>
    </vehicle>
    <vehicle id="244" depart="97.60">
        <route edges="0:1 1:3 3:7"/>
    </vehicle>
    <vehicle id="245" depart="98.00">
        <route edges="2:0 0:1"/>
    </vehicle>
    <vehicle id="246" depart="98.40">
        <route edges="2:0 0:1 1:5"/>
    </vehicle>
    <vehicle id="249" depart="99.60">
        <route edges="3:1 1:0 0:2"/>
    </vehicle>
    <vehicle id="251" depart="100.40">
        <route edges="7:3 3:1 1:0 0:2"/>
    </vehicle>
    <vehicle id="256" depart="102.40">
        <route edges="7:3 3:1 1:5"/>
    </vehicle>
    <vehicle id="258" depart="103.20">
        <route edges="2:0 0:1 1:3"/>
    </vehicle>
    <vehicle id="259" depart="103.60">
        <route edges="6:5 5:1 1:0 0:2"/>
    </vehicle>
    <vehicle id="268" depart="107.20">
        <route edges="1:3"/>
    </vehicle>
    <vehicle id="282" depart="112.80">
        <route edges="1:0 0:2"/>
    </vehicle>
    <vehicle id="285" depart="114.00">
        <route edges="7:3 3:1"/>
    </vehicle>
    <vehicle id="286" depart="114.40">
        <route edges="7:3 3:1 1:0"/>
    </vehicle>
    <vehicle id="287" depart="114.80">
        <route edges="2:0 0:1 1:3 3:7"/>
    </vehicle>
    <vehicle id="288" depart="115.20">
        <route edges="0:1 1:5"/>
    </vehicle>
    <vehicle id="289" depart="115.60">
        <route edges="0:1 1:5 5:6"/>
    </vehicle>
    <vehicle id="290" depart="116.00">
        <route edges="7:3 3:1 1:5 5:6"/>
    </vehicle>
    <vehicle id="291" depart="116.40">
        <route edges="5:1 1:0"/>
    </vehicle>
    <vehicle id="292" depart="116.80">
        <route edges="2:0 0:1 1:5 5:6"/>
    </vehicle>
    <vehicle id="296" depart="118.40">
        <route edges="7:3 3:1 1:0 0:2"/>
    </vehicle>
    <vehicle id="301" depart="120.40">
        <route edges="1:0"/>
    </vehicle>
    <vehicle id="303" depart="121.20">
        <route edges="6:5 5:1"/>
    </vehicle>
    <vehicle id="306" depart="122.40">
        <route edges="7:3 3:1 1:0"/>
    </vehicle>
    <vehicle id="307" depart="122.80">
        <route edges="1:5 5:6"/>
    </vehicle>
    <vehicle id="308" depart="123.20">
        <route edges="0:1 1:3 3:7"/>
    </vehicle>
    <vehicle id="309" depart="123.60">
        <route edges="1:3 3:7"/>
    </vehicle>
    <vehicle id="317" depart="126.80">
        <route edges="7:3 3:1 1:0"/>
    </vehicle>
    <vehicle id="318" depart="127.20">
        <route edges="0:1 1:3"/>
    </vehicle>
    <vehicle id="319" depart="127.60">
        <route edges="1:0 0:2"/>
    </vehicle>
    <vehicle id="320" depart="128.00">
        <route edges="2:0 0:1 1:5 5:6"/>
    </vehicle>
    <vehicle id="323" depart="129.20">
        <route edges="2:0 0:1 1:3 3:7"/>
    </vehicle>
    <vehicle id="324" depart="129.60">
        <route edges="3:1 1:0 0:2"/>
    </vehicle>
    <vehicle id="325" depart="130.00">
        <route edges="2:0 0:1"/>
    </vehicle>
    <vehicle id="327" depart="130.80">
        <route edges="6:5 5:1 1:3 3:7"/>
    </vehicle>
    <vehicle id="328" depart="131.20">
        <route edges="2:0 0:1 1:3"/>
    </vehicle>
    <vehicle id="329" depart="131.60">
        <route edges="7:3 3:1 1:0 0:2"/>
    </vehicle>
    <vehicle id="334" depart="133.60">
        <route edges="1:3"/>
    </vehicle>
    <vehicle id="335" depart="134.00">
        <route edges="1:0 0:2"/>
    </vehicle>
    <vehicle id="336" depart="134.40">
        <route edges="3:1 1:0"/>
    </vehicle>
    <vehicle id="339" depart="135.60">
        <route edges="1:0 0:2"/>
    </vehicle>
    <vehicle id="341" depart="136.40">
        <route edges="7:3 3:1 1:5"/>
    </vehicle>
    <vehicle id="342" depart="136.80">
        <route edges="6:5 5:1 1:3 3:7"/>
    </vehicle>
    <vehicle id="343" depart="137.20">
        <route edges="7:3 3:1 1:0 0:2"/>
    </vehicle>
    <vehicle id="345" depart="138.00">
        <route edges="1:0 0:2"/>
    </vehicle>
    <vehicle id="347" depart="138.80">
        <route edges="5:1 1:0 0:2"/>
    </vehicle>
    <vehicle id="352" depart="140.80">
        <route edges="6:5 5:1 1:0 0:2"/>
    </vehicle>
    <vehicle id="358" depart="143.20">
        <route edges="2:0 0:1 1:5"/>
    </vehicle>
    <vehicle id="360" depart="144.00">
        <route edges="2:0 0:1 1:5"/>
    </vehicle>
    <vehicle id="362" depart="144.80">
        <route edges="2:0 0:1"/>
    </vehicle>
    <vehicle id="363" depart="145.20">
        <route edges="5:1 1:0 0:2"/>
    </vehicle>
    <vehicle id="366" depart="146.40">
        <route edges="2:0 0:1"/>
    </vehicle>
    <vehicle id="369" depart="147.60">
        <route edges="0:1 1:3 3:7"/>
    </vehicle>
    <vehicle id="377" depart="150.80">
        <route edges="6:5 5:1 1:0"/>
    </vehicle>
    <vehicle id="379" depart="151.60">
        <route edges="3:1 1:0"/>
    </vehicle>
    <vehicle id="383" depart="153.20">
        <route edges="3:1 1:0 0:2"/>
    </vehicle>
    <vehicle id="388" depart="155.20">
        <route edges="0:1 1:3"/>
    </vehicle>
    <vehicle id="393" depart="157.20">
        <route edges="2:0 0:1 1:3 3:7"/>
    </vehicle>
    <vehicle id="394" depart="157.60">
        <route edges="6:5 5:1 1:0"/>
    </vehicle>
    <vehicle id="396" depart="158.40">
        <route edges="6:5 5:1 1:0 0:2"/>
    </vehicle>
    <vehicle id="397" depart="158.80">
        <route edges="7:3 3:1 1:0 0:2"/>
    </vehicle>
    <vehicle id="398" depart="159.20">
        <route edges="2:0 0:1 1:5 5:6"/>
    </vehicle>
    <vehicle id="399" depart="159.60">
        <route edges="2:0 0:1 1:3 3:7"/>
    </vehicle>
    <vehicle id="401" depart="160.40">
        <route edges="1:3 3:7"/>
    </vehicle>
    <vehicle id="402" depart="160.80">
        <route edges="0:1 1:3 3:7"/>
    </vehicle>
    <vehicle id="406" depart="162.40">
        <route edges="2:0 0:1 1:5 5:6"/>
    </vehicle>
    <vehicle id="407" depart="162.80">
        <route edges="2:0 0:1 1:3"/>
    </vehicle>
    <vehicle id="410" depart="164.00">
        <route edges="7:3 3:1 1:0 0:2"/>
    </vehicle>
    <vehicle id="411" depart="164.40">
        <route edges="0:1 1:5 5:6"/>
    </vehicle>
    <vehicle id="412" depart="164.80">
        <route edges="1:3"/>
    </vehicle>
    <vehicle id="413" depart="165.20">
        <route edges="3:1 1:5 5:6"/>
    </vehicle>
    <vehicle id="414" depart="165.60">
        <route edges="0:1 1:3 3:7"/>
    </vehicle>
    <vehicle id="415" depart="166.00">
        <route edges="6:5 5:1 1:3 3:7"/>
    </vehicle>
    <vehicle id="416" depart="166.40">
        <route edges="2:0 0:1 1:3 3:7"/>
    </vehicle>
    <vehicle id="418" depart="167.20">
        <route edges="2:0 0:1"/>
    </vehicle>
    <vehicle id="420" depart="168.00">
        <route edges="2:0 0:1 1:3 3:7"/>
    </vehicle>
    <vehicle id="422" depart="168.80">
        <route edges="7:3 3:1 1:0 0:2"/>
    </vehicle>
    <vehicle id="425" depart="170.00">
        <route edges="3:1 1:0 0:2"/>
    </vehicle>
    <vehicle id="426" depart="170.40">
        <route edges="5:1"/>
    </vehicle>
    <vehicle id="429" depart="171.60">
        <route edges="3:1"/>
    </vehicle>
    <vehicle id="430" depart="172.00">
        <route edges="1:3"/>
    </vehicle>
    <vehicle id="431" depart="172.40">
        <route edges="0:1"/>
    </vehicle>
    <vehicle id="433" depart="173.20">
        <route edges="1:3 3:7"/>
    </vehicle>
    <vehicle id="434" depart="173.60">
        <route edges="7:3 3:1"/>
    </vehicle>
    <vehicle id="441" depart="176.40">
        <route edges="7:3 3:1 1:5"/>
    </vehicle>
    <vehicle id="443" depart="177.20">
        <route edges="6:5 5:1"/>
    </vehicle>
    <vehicle id="444" depart="177.60">
        <route edges="7:3 3:1 1:0 0:2"/>
    </vehicle>
    <vehicle id="446" depart="178.40">
        <route edges="5:1 1:3 3:7"/>
    </vehicle>
    <vehicle id="447" depart="178.80">
        <route edges="2:0 0:1 1:3"/>
    </vehicle>
    <vehicle id="449" depart="179.60">
        <route edges="2:0 0:1 1:3"/>
    </vehicle>
    <vehicle id="450" depart="180.00">
        <route edges="0:1 1:5 5:6"/>
    </vehicle>
    <vehicle id="451" depart="180.40">
        <route edges="5:1 1:3 3:7"/>
    </vehicle>
    <vehicle id="455" depart="182.00">
        <route edges="2:0 0:1"/>
    </vehicle>
    <vehicle id="456" depart="182.40">
        <route edges="3:1 1:5"/>
    </vehicle>
    <vehicle id="459" depart="183.60">
        <route edges="5:1 1:0 0:2"/>
    </vehicle>
    <vehicle id="461" depart="184.40">
        <route edges="5:1 1:3 3:7"/>
    </vehicle>
    <vehicle id="463" depart="185.20">
        <route edges="3:1 1:0 0:2"/>
    </vehicle>
    <vehicle id="465" depart="186.00">
        <route edges="3:1 1:0"/>
    </vehicle>
    <vehicle id="467" depart="186.80">
        <route edges="2:0 0:1 1:3"/>
    </vehicle>
    <vehicle id="468" depart="187.20">
        <route edges="7:3 3:1 1:5"/>
    </vehicle>
    <vehicle id="471" depart="188.40">
        <route edges="2:0 0:1 1:3 3:7"/>
    </vehicle>
    <vehicle id="472" depart="188.80">
        <route edges="1:0 0:2"/>
    </vehicle>
    <vehicle id="474" depart="189.60">
        <route edges="7:3 3:1 1:0 0:2"/>
    </vehicle>
    <vehicle id="475" depart="190.00">
        <route edges="1:3"/>
    </vehicle>
    <vehicle id="477" depart="190.80">
        <route edges="7:3 3:1 1:0 0:2"/>
    </vehicle>
    <vehicle id="479" depart="191.60">
        <route edges="3:1"/>
    </vehicle>
    <vehicle id="480" depart="192.00">
        <route edges="2:0 0:1 1:3 3:7"/>
    </vehicle>
    <vehicle id="481" depart="192.40">
        <route edges="6:5 5:1 1:0 0:2"/>
    </vehicle>
    <vehicle id="482" depart="192.80">
        <route edges="2:0 0:1 1:5 5:6"/>
    </vehicle>
    <vehicle id="483" depart="193.20">
        <route edges="2:0 0:1 1:3 3:7"/>
    </vehicle>
    <vehicle id="485" depart="194.00">
        <route edges="6:5 5:1 1:0 0:2"/>
    </vehicle>
    <vehicle id="489" depart="195.60">
        <route edges="2:0 0:1 1:3 3:7"/>
    </vehicle>
    <vehicle id="490" depart="196.00">
        <route edges="0:1"/>
    </vehicle>
    <vehicle id="491" depart="196.40">
        <route edges="7:3 3:1 1:0 0:2"/>
    </vehicle>
    <vehicle id="494" depart="197.60">
        <route edges="7:3 3:1 1:0"/>
    </vehicle>
    <vehicle id="495" depart="198.00">
        <route edges="0:1 1:5 5:6"/>
    </vehicle>
    <vehicle id="497" depart="198.80">
        <route edges="3:1 1:0 0:2"/>
    </vehicle>
    <vehicle id="498" depart="199.20">
        <route edges="2:0 0:1 1:3"/>
    </vehicle>
    <vehicle id="499" depart="199.60">
        <route edges="7:3 3:1 1:0 0:2"/>
    </vehicle>
    <vehicle id="500" depart="200.00">
        <route edges="7:3 3:1 1:0"/>
    </vehicle>
    <vehicle id="504" depart="201.60">
        <route edges="6:5 5:1 1:3"/>
    </vehicle>
    <vehicle id="506" depart="202.40">
        <route edges="7:3 3:1 1:0 0:2"/>
    </vehicle>
    <vehicle id="507" depart="202.80">
        <route edges="7:3 3:1 1:0 0:2"/>
    </vehicle>
    <vehicle id="508" depart="203.20">
        <route edges="7:3 3:1 1:5"/>
    </vehicle>
    <vehicle id="510" depart="204.00">
        <route edges="1:0"/>
    </vehicle>
    <vehicle id="515" depart="206.00">
        <route edges="7:3 3:1 1:0 0:2"/>
    </vehicle>
    <vehicle id="518" depart="207.20">
        <route edges="7:3 3:1 1:5 5:6"/>
    </vehicle>
    <vehicle id="519" depart="207.60">
        <route edges="0:1 1:3 3:7"/>
    </vehicle>
    <vehicle id="520" depart="208.00">
        <route edges="0:1 1:5 5:6"/>
    </vehicle>
    <vehicle id="522" depart="208.80">
        <route edges="3:1 1:5"/>
    </vehicle>
    <vehicle id="524" depart="209.60">
        <route edges="0:1 1:3 3:7"/>
    </vehicle>
    <vehicle id="526" depart="210.40">
        <route edges="6:5 5:1 1:0 0:2"/>
    </vehicle>
    <vehicle id="527" depart="210.80">
        <route edges="7:3 3:1 1:5 5:6"/>
    </vehicle>
    <vehicle id="529" depart="211.60">
        <route edges="7:3 3:1 1:0 0:2"/>
    </vehicle>
    <vehicle id="530" depart="212.00">
        <route edges="0:1"/>
    </vehicle>
    <vehicle id="533" depart="213.20">
        <route edges="7:3 3:1 1:0"/>
    </vehicle>
    <vehicle id="534" depart="213.60">
        <route edges="0:1 1:3 3:7"/>
    </vehicle>
    <vehicle id="535" depart="214.00">
        <route edges="1:0"/>
    </vehicle>
    <vehicle id="536" depart="214.40">
        <route edges="6:5 5:1 1:3 3:7"/>
    </vehicle>
    <vehicle id="537" depart="214.80">
        <route edges="3:1 1:5 5:6"/>
    </vehicle>
    <vehicle id="539" depart="215.60">
        <route edges="6:5 5:1 1:3"/>
    </vehicle>
    <vehicle id="542" depart="216.80">
        <route edges="2:0 0:1 1:5"/>
    </vehicle>
    <vehicle id="544" depart="217.60">
        <route edges="2:0 0:1 1:3"/>
    </vehicle>
    <vehicle id="545" depart="218.00">
        <route edges="0:1 1:3 3:7"/>
    </vehicle>
    <vehicle id="546" depart="218.40">
        <route edges="3:1"/>
    </vehicle>
    <vehicle id="548" depart="219.20">
        <route edges="1:3"/>
    </vehicle>
    <vehicle id="549" depart="219.60">
        <route edges="0:1 1:3 3:7"/>
    </vehicle>
    <vehicle id="550" depart="220.00">
        <route edges="2:0 0:1 1:3 3:7"/>
    </vehicle>
    <vehicle id="551" depart="220.40">
        <route edges="3:1 1:5 5:6"/>
    </vehicle>
    <vehicle id="552" depart="220.80">
        <route edges="7:3 3:1 1:0 0:2"/>
    </vehicle>
    <vehicle id="555" depart="222.00">
        <route edges="3:1 1:0 0:2"/>
    </vehicle>
    <vehicle id="559" depart="223.60">
        <route edges="1:0 0:2"/>
    </vehicle>
    <vehicle id="561" depart="224.40">
        <route edges="2:0 0:1 1:3"/>
    </vehicle>
    <vehicle id="566" depart="226.40">
        <route edges="1:0 0:2"/>
    </vehicle>
    <vehicle id="570" depart="228.00">
        <route edges="2:0 0:1"/>
    </vehicle>
    <vehicle id="574" depart="229.60">
        <route edges="1:5 5:6"/>
    </vehicle>
    <vehicle id="575" depart="230.00">
        <route edges="2:0 0:1 1:5 5:6"/>
    </vehicle>
    <vehicle id="577" depart="230.80">
        <route edges="0:1"/>
    </vehicle>
    <vehicle id="580" depart="232.00">
        <route edges="3:1 1:0"/>
    </vehicle>
    <vehicle id="582" depart="232.80">
        <route edges="6:5 5:1 1:3 3:7"/>
    </vehicle>
    <vehicle id="583" depart="233.20">
        <route edges="3:1"/>
    </vehicle>
    <vehicle id="585" depart="234.00">
        <route edges="1:0"/>
    </vehicle>
    <vehicle id="587" depart="234.80">
        <route edges="3:1"/>
    </vehicle>
    <vehicle id="588" depart="235.20">
        <route edges="7:3 3:1 1:0"/>
    </vehicle>
    <vehicle id="589" depart="235.60">
        <route edges="2:0 0:1"/>
    </vehicle>
    <vehicle id="590" depart="236.00">
        <route edges="7:3 3:1 1:0 0:2"/>
    </vehicle>
    <vehicle id="592" depart="236.80">
        <route edges="3:1 1:5 5:6"/>
    </vehicle>
    <vehicle id="593" depart="237.20">
        <route edges="7:3 3:1"/>
    </vehicle>
    <vehicle id="595" depart="238.00">
        <route edges="3:1 1:0 0:2"/>
    </vehicle>
    <vehicle id="598" depart="239.20">
        <route edges="0:1 1:3 3:7"/>
    </vehicle>
    <vehicle id="599" depart="239.60">
        <route edges="1:0 0:2"/>
    </vehicle>
    <vehicle id="600" depart="240.00">
        <route edges="0:1 1:3"/>
    </vehicle>
    <vehicle id="601" depart="240.40">
        <route edges="7:3 3:1 1:5 5:6"/>
    </vehicle>
    <vehicle id="602" depart="240.80">
        <route edges="6:5 5:1 1:3 3:7"/>
    </vehicle>
    <vehicle id="604" depart="241.60">
        <route edges="7:3 3:1 1:0"/>
    </vehicle>
    <vehicle id="605" depart="242.00">
        <route edges="2:0 0:1"/>
    </vehicle>
    <vehicle id="608" depart="243.20">
        <route edges="7:3 3:1"/>
    </vehicle>
    <vehicle id="609" depart="243.60">
        <route edges="7:3 3:1 1:0 0:2"/>
    </vehicle>
    <vehicle id="610" depart="244.00">
        <route edges="0:1"/>
    </vehicle>
    <vehicle id="611" depart="244.40">
        <route edges="2:0 0:1"/>
    </vehicle>
    <vehicle id="619" depart="247.60">
        <route edges="7:3 3:1 1:0 0:2"/>
    </vehicle>
    <vehicle id="621" depart="248.40">
        <route edges="3:1 1:0 0:2"/>
    </vehicle>
    <vehicle id="622" depart="248.80">
        <route edges="2:0 0:1"/>
    </vehicle>
    <vehicle id="625" depart="250.00">
        <route edges="1:3 3:7"/>
    </vehicle>
    <vehicle id="630" depart="252.00">
        <route edges="0:1 1:3 3:7"/>
    </vehicle>
    <vehicle id="631" depart="252.40">
        <route edges="1:3 3:7"/>
    </vehicle>
    <vehicle id="632" depart="252.80">
        <route edges="6:5 5:1 1:0 0:2"/>
    </vehicle>
    <vehicle id="633" depart="253.20">
        <route edges="6:5 5:1 1:3 3:7"/>
    </vehicle>
    <vehicle id="634" depart="253.60">
        <route edges="0:1 1:5 5:6"/>
    </vehicle>
    <vehicle id="636" depart="254.40">
        <route edges="3:1 1:0"/>
    </vehicle>
    <vehicle id="637" depart="254.80">
        <route edges="6:5 5:1 1:3 3:7"/>
    </vehicle>
    <vehicle id="638" depart="255.20">
        <route edges="1:0"/>
    </vehicle>
    <vehicle id="639" depart="255.60">
        <route edges="0:1 1:5"/>
    </vehicle>
    <vehicle id="640" depart="256.00">
        <route edges="5:1 1:0"/>
    </vehicle>
    <vehicle id="642" depart="256.80">
        <route edges="5:1 1:3 3:7"/>
    </vehicle>
    <vehicle id="643" depart="257.20">
        <route edges="2:0 0:1 1:3 3:7"/>
    </vehicle>
    <vehicle id="644" depart="257.60">
        <route edges="7:3 3:1 1:5"/>
    </vehicle>