<?xml version="1.0" encoding="UTF-8"?>

<!-- generated on Thu Feb 13 12:40:02 2014 by SUMO duarouter Version 0.18.0
<?xml version="1.0" encoding="UTF-8"?>

<configuration xmlns:xsi="http://www.w3.org/2001/XMLSchema-instance" xsi:noNamespaceSchemaLocation="http://sumo.sf.net/xsd/duarouterConfiguration.xsd">

    <input>
        <net-file value="simpleT.net.xml"/>
        <trip-files value="experimentos/simpleT.p1.0.10.trips.xml"/>
    </input>

    <output>
        <output-file value="experimentos/simpleT.p1.0.10.rou.xml"/>
    </output>

    <processing>
        <ignore-errors value="true"/>
    </processing>

    <random_number>
        <random value="true"/>
    </random_number>

</configuration>
-->

<routes xmlns:xsi="http://www.w3.org/2001/XMLSchema-instance" xsi:noNamespaceSchemaLocation="http://sumo.sf.net/xsd/routes_file.xsd">
    <vehicle id="0" depart="0.00">
        <route edges="6:5 5:1 1:3 3:7"/>
    </vehicle>
    <vehicle id="4" depart="4.00">
        <route edges="0:1 1:3 3:7"/>
    </vehicle>
    <vehicle id="5" depart="5.00">
        <route edges="3:1 1:0 0:2"/>
    </vehicle>
    <vehicle id="8" depart="8.00">
        <route edges="6:5 5:1 1:3 3:7"/>
    </vehicle>
    <vehicle id="9" depart="9.00">
        <route edges="6:5 5:1 1:0 0:2"/>
    </vehicle>
    <vehicle id="15" depart="15.00">
        <route edges="6:5 5:1 1:3 3:7"/>
    </vehicle>
    <vehicle id="18" depart="18.00">
        <route edges="2:0 0:1 1:3"/>
    </vehicle>
    <vehicle id="19" depart="19.00">
        <route edges="7:3 3:1 1:5"/>
    </vehicle>
    <vehicle id="21" depart="21.00">
        <route edges="1:0 0:2"/>
    </vehicle>
    <vehicle id="22" depart="22.00">
        <route edges="1:3 3:7"/>
    </vehicle>
    <vehicle id="24" depart="24.00">
        <route edges="7:3 3:1 1:5 5:6"/>
    </vehicle>
    <vehicle id="29" depart="29.00">
        <route edges="0:1 1:3"/>
    </vehicle>
    <vehicle id="30" depart="30.00">
        <route edges="2:0 0:1"/>
    </vehicle>
    <vehicle id="31" depart="31.00">
        <route edges="1:0 0:2"/>
    </vehicle>
    <vehicle id="34" depart="34.00">
        <route edges="7:3 3:1 1:0"/>
    </vehicle>
    <vehicle id="35" depart="35.00">
        <route edges="7:3 3:1 1:0 0:2"/>
    </vehicle>
    <vehicle id="36" depart="36.00">
        <route edges="2:0 0:1 1:3 3:7"/>
    </vehicle>
    <vehicle id="37" depart="37.00">
        <route edges="7:3 3:1 1:0 0:2"/>
    </vehicle>
    <vehicle id="38" depart="38.00">
        <route edges="0:1 1:3 3:7"/>
    </vehicle>
    <vehicle id="41" depart="41.00">
        <route edges="2:0 0:1 1:3"/>
    </vehicle>
    <vehicle id="42" depart="42.00">
        <route edges="7:3 3:1 1:0 0:2"/>
    </vehicle>
    <vehicle id="44" depart="44.00">
        <route edges="7:3 3:1 1:5 5:6"/>
    </vehicle>
    <vehicle id="45" depart="45.00">
        <route edges="1:3"/>
    </vehicle>
    <vehicle id="46" depart="46.00">
        <route edges="0:1 1:3 3:7"/>
    </vehicle>
    <vehicle id="49" depart="49.00">
        <route edges="7:3 3:1 1:0 0:2"/>
    </vehicle>
    <vehicle id="57" depart="57.00">
        <route edges="2:0 0:1 1:5 5:6"/>
    </vehicle>
    <vehicle id="60" depart="60.00">
        <route edges="3:1 1:5"/>
    </vehicle>
    <vehicle id="61" depart="61.00">
        <route edges="6:5 5:1 1:3"/>
    </vehicle>
    <vehicle id="64" depart="64.00">
        <route edges="3:1 1:0 0:2"/>
    </vehicle>
    <vehicle id="66" depart="66.00">
        <route edges="7:3 3:1 1:5"/>
    </vehicle>
    <vehicle id="67" depart="67.00">
        <route edges="7:3 3:1 1:0"/>
    </vehicle>
    <vehicle id="68" depart="68.00">
        <route edges="3:1 1:0"/>
    </vehicle>
    <vehicle id="69" depart="69.00">
        <route edges="6:5 5:1 1:0 0:2"/>
    </vehicle>
    <vehicle id="70" depart="70.00">
        <route edges="2:0 0:1 1:5"/>
    </vehicle>
    <vehicle id="71" depart="71.00">
        <route edges="2:0 0:1 1:3 3:7"/>
    </vehicle>
    <vehicle id="74" depart="74.00">
        <route edges="1:3 3:7"/>
    </vehicle>
    <vehicle id="75" depart="75.00">
        <route edges="0:1 1:3"/>
    </vehicle>
    <vehicle id="76" depart="76.00">
        <route edges="7:3 3:1 1:5"/>
    </vehicle>
    <vehicle id="78" depart="78.00">
        <route edges="3:1 1:0 0:2"/>
    </vehicle>
    <vehicle id="79" depart="79.00">
        <route edges="0:1 1:5 5:6"/>
    </vehicle>
    <vehicle id="80" depart="80.00">
        <route edges="3:1 1:0"/>
    </vehicle>
    <vehicle id="81" depart="81.00">
        <route edges="0:1 1:3"/>
    </vehicle>
    <vehicle id="82" depart="82.00">
        <route edges="7:3 3:1 1:0 0:2"/>
    </vehicle>
    <vehicle id="83" depart="83.00">
        <route edges="5:1 1:0"/>
    </vehicle>
    <vehicle id="85" depart="85.00">
        <route edges="7:3 3:1 1:0"/>
    </vehicle>
    <vehicle id="86" depart="86.00">
        <route edges="2:0 0:1 1:3 3:7"/>
    </vehicle>
    <vehicle id="87" depart="87.00">
        <route edges="6:5 5:1 1:0 0:2"/>
    </vehicle>
    <vehicle id="89" depart="89.00">
        <route edges="7:3 3:1"/>
    </vehicle>
    <vehicle id="90" depart="90.00">
        <route edges="6:5 5:1 1:3"/>
    </vehicle>
    <vehicle id="92" depart="92.00">
        <route edges="5:1 1:3"/>
    </vehicle>
    <vehicle id="93" depart="93.00">
        <route edges="2:0 0:1 1:3"/>
    </vehicle>
    <vehicle id="95" depart="95.00">
        <route edges="5:1 1:3 3:7"/>
    </vehicle>
    <vehicle id="99" depart="99.00">
        <route edges="6:5 5:1 1:0 0:2"/>
    </vehicle>
    <vehicle id="101" depart="101.00">
        <route edges="0:1 1:5 5:6"/>
    </vehicle>
    <vehicle id="103" depart="103.00">
        <route edges="7:3 3:1"/>
    </vehicle>
    <vehicle id="105" depart="105.00">
        <route edges="7:3 3:1 1:5 5:6"/>
    </vehicle>
    <vehicle id="109" depart="109.00">
        <route edges="6:5 5:1 1:3 3:7"/>
    </vehicle>
    <vehicle id="111" depart="111.00">
        <route edges="2:0 0:1"/>
    </vehicle>
    <vehicle id="112" depart="112.00">
        <route edges="0:1 1:5 5:6"/>
    </vehicle>
    <vehicle id="114" depart="114.00">
        <route edges="5:1 1:3 3:7"/>
    </vehicle>
    <vehicle id="115" depart="115.00">
        <route edges="2:0 0:1 1:3 3:7"/>
    </vehicle>
    <vehicle id="117" depart="117.00">
        <route edges="2:0 0:1 1:3 3:7"/>
    </vehicle>
    <vehicle id="120" depart="120.00">
        <route edges="5:1 1:0 0:2"/>
    </vehicle>
    <vehicle id="121" depart="121.00">
        <route edges="5:1 1:0 0:2"/>
    </vehicle>
    <vehicle id="122" depart="122.00">
        <route edges="2:0 0:1 1:3 3:7"/>
    </vehicle>
    <vehicle id="126" depart="126.00">
        <route edges="1:0 0:2"/>
    </vehicle>
    <vehicle id="128" depart="128.00">
        <route edges="3:1"/>
    </vehicle>
    <vehicle id="129" depart="129.00">
        <route edges="1:0 0:2"/>
    </vehicle>
    <vehicle id="130" depart="130.00">
        <route edges="0:1 1:3 3:7"/>
    </vehicle>
    <vehicle id="141" depart="141.00">
        <route edges="3:1 1:0 0:2"/>
    </vehicle>
    <vehicle id="146" depart="146.00">
        <route edges="7:3 3:1 1:0"/>
    </vehicle>
    <vehicle id="147" depart="147.00">
        <route edges="7:3 3:1"/>
    </vehicle>
    <vehicle id="148" depart="148.00">
        <route edges="0:1 1:5 5:6"/>
    </vehicle>
    <vehicle id="151" depart="151.00">
        <route edges="7:3 3:1 1:0 0:2"/>
    </vehicle>
    <vehicle id="155" depart="155.00">
        <route edges="6:5 5:1 1:3 3:7"/>
    </vehicle>
    <vehicle id="156" depart="156.00">
        <route edges="2:0 0:1 1:3 3:7"/>
    </vehicle>
    <vehicle id="157" depart="157.00">
        <route edges="7:3 3:1 1:0"/>
    </vehicle>
    <vehicle id="158" depart="158.00">
        <route edges="7:3 3:1 1:5 5:6"/>
    </vehicle>
    <vehicle id="162" depart="162.00">
        <route edges="0:1 1:3 3:7"/>
    </vehicle>
    <vehicle id="164" depart="164.00">
        <route edges="1:5"/>
    </vehicle>
    <vehicle id="166" depart="166.00">
        <route edges="1:0 0:2"/>
    </vehicle>
    <vehicle id="172" depart="172.00">
        <route edges="0:1 1:5"/>
    </vehicle>
    <vehicle id="173" depart="173.00">
        <route edges="1:3 3:7"/>
    </vehicle>
    <vehicle id="175" depart="175.00">
        <route edges="7:3 3:1 1:0 0:2"/>
    </vehicle>
    <vehicle id="176" depart="176.00">
        <route edges="1:3 3:7"/>
    </vehicle>
    <vehicle id="177" depart="177.00">
        <route edges="2:0 0:1 1:3 3:7"/>
    </vehicle>
    <vehicle id="178" depart="178.00">
        <route edges="3:1 1:0"/>
    </vehicle>
    <vehicle id="179" depart="179.00">
        <route edges="7:3 3:1 1:5 5:6"/>
    </vehicle>
    <vehicle id="180" depart="180.00">
        <route edges="2:0 0:1 1:3 3:7"/>
    </vehicle>
    <vehicle id="182" depart="182.00">
        <route edges="2:0 0:1"/>
    </vehicle>
    <vehicle id="184" depart="184.00">
        <route edges="7:3 3:1"/>
    </vehicle>
    <vehicle id="186" depart="186.00">
        <route edges="1:3 3:7"/>
    </vehicle>
    <vehicle id="187" depart="187.00">
        <route edges="2:0 0:1 1:5"/>
    </vehicle>
    <vehicle id="191" depart="191.00">
        <route edges="2:0 0:1 1:3"/>
    </vehicle>
    <vehicle id="192" depart="192.00">
        <route edges="0:1 1:3 3:7"/>
    </vehicle>
    <vehicle id="193" depart="193.00">
        <route edges="2:0 0:1 1:3 3:7"/>
    </vehicle>
    <vehicle id="194" depart="194.00">
        <route edges="7:3 3:1 1:0 0:2"/>
    </vehicle>
    <vehicle id="195" depart="195.00">
        <route edges="7:3 3:1 1:0 0:2"/>
    </vehicle>
    <vehicle id="199" depart="199.00">
        <route edges="5:1 1:0 0:2"/>
    </vehicle>
    <vehicle id="201" depart="201.00">
        <route edges="7:3 3:1 1:5 5:6"/>
    </vehicle>
    <vehicle id="202" depart="202.00">
        <route edges="3:1 1:0"/>
    </vehicle>
    <vehicle id="203" depart="203.00">
        <route edges="7:3 3:1 1:5"/>
    </vehicle>
    <vehicle id="205" depart="205.00">
        <route edges="0:1 1:5 5:6"/>
    </vehicle>
    <vehicle id="206" depart="206.00">
        <route edges="7:3 3:1 1:0 0:2"/>
    </vehicle>
    <vehicle id="207" depart="207.00">
        <route edges="0:1 1:3 3:7"/>
    </vehicle>
    <vehicle id="209" depart="209.00">
        <route edges="2:0 0:1 1:5"/>
    </vehicle>
    <vehicle id="214" depart="214.00">
        <route edges="7:3 3:1 1:0 0:2"/>
    </vehicle>
    <vehicle id="215" depart="215.00">
        <route edges="2:0 0:1 1:3 3:7"/>
    </vehicle>
    <vehicle id="216" depart="216.00">
        <route edges="3:1 1:0 0:2"/>
    </vehicle>
    <vehicle id="219" depart="219.00">
        <route edges="2:0 0:1 1:3 3:7"/>
    </vehicle>
    <vehicle id="220" depart="220.00">
        <route edges="2:0 0:1 1:5 5:6"/>
    </vehicle>
    <vehicle id="221" depart="221.00">
        <route edges="2:0 0:1 1:3 3:7"/>
    </vehicle>
    <vehicle id="222" depart="222.00">
        <route edges="6:5 5:1 1:0 0:2"/>
    </vehicle>
    <vehicle id="223" depart="223.00">
        <route edges="6:5 5:1 1:0 0:2"/>
    </vehicle>
    <vehicle id="224" depart="224.00">
        <route edges="6:5 5:1 1:0 0:2"/>
    </vehicle>
    <vehicle id="227" depart="227.00">
        <route edges="3:1 1:5 5:6"/>
    </vehicle>
    <vehicle id="229" depart="229.00">
        <route edges="2:0 0:1 1:5 5:6"/>
    </vehicle>
    <vehicle id="231" depart="231.00">
        <route edges="6:5 5:1 1:3 3:7"/>
    </vehicle>
    <vehicle id="235" depart="235.00">
        <route edges="5:1 1:3 3:7"/>
    </vehicle>
    <vehicle id="241" depart="241.00">
        <route edges="2:0 0:1 1:3 3:7"/>
    </vehicle>
    <vehicle id="242" depart="242.00">
        <route edges="2:0 0:1 1:3"/>
    </vehicle>
    <vehicle id="243" depart="243.00">
        <route edges="7:3 3:1 1:0"/>
    </vehicle>
    <vehicle id="245" depart="245.00">
        <route edges="6:5 5:1 1:3 3:7"/>
    </vehicle>
    <vehicle id="248" depart="248.00">
        <route edges="3:1"/>
    </vehicle>
    <vehicle id="250" depart="250.00">
        <route edges="3:1 1:0 0:2"/>
    </vehicle>
    <vehicle id="251" depart="251.00">
        <route edges="7:3 3:1 1:5 5:6"/>
    </vehicle>
    <vehicle id="255" depart="255.00">
        <route edges="7:3 3:1 1:0"/>
    </vehicle>
    <vehicle id="256" depart="256.00">
        <route edges="2:0 0:1 1:3 3:7"/>
    </vehicle>
    <vehicle id="258" depart="258.00">
        <route edges="0:1 1:3 3:7"/>
    </vehicle>
    <vehicle id="263" depart="263.00">
        <route edges="2:0 0:1 1:3 3:7"/>
    </vehicle>
    <vehicle id="265" depart="265.00">
        <route edges="0:1 1:3 3:7"/>
    </vehicle>
    <vehicle id="266" depart="266.00">
        <route edges="2:0 0:1 1:3 3:7"/>
    </vehicle>
    <vehicle id="269" depart="269.00">
        <route edges="7:3 3:1 1:0 0:2"/>
    </vehicle>
    <vehicle id="270" depart="270.00">
        <route edges="2:0 0:1 1:3"/>
    </vehicle>
    <vehicle id="273" depart="273.00">
        <route edges="1:0 0:2"/>
    </vehicle>
    <vehicle id="275" depart="275.00">
        <route edges="2:0 0:1"/>
    </vehicle>
    <vehicle id="277" depart="277.00">
        <route edges="1:0 0:2"/>
    </vehicle>
    <vehicle id="278" depart="278.00">
        <route edges="2:0 0:1 1:3 3:7"/>
    </vehicle>
    <vehicle id="284" depart="284.00">
        <route edges="1:3 3:7"/>
    </vehicle>
    <vehicle id="285" depart="285.00">
        <route edges="6:5 5:1 1:0"/>
    </vehicle>
    <vehicle id="286" depart="286.00">
        <route edges="6:5 5:1 1:3 3:7"/>
    </vehicle>
    <vehicle id="288" depart="288.00">
        <route edges="6:5 5:1 1:0 0:2"/>
    </vehicle>
    <vehicle id="289" depart="289.00">
        <route edges="0:1"/>
    </vehicle>
    <vehicle id="292" depart="292.00">
        <route edges="0:1 1:3 3:7"/>
    </vehicle>
    <vehicle id="297" depart="297.00">
        <route edges="5:1 1:0 0:2"/>
    </vehicle>
    <vehicle id="298" depart="298.00">
        <route edges="5:1 1:0"/>
    </vehicle>
    <vehicle id="302" depart="302.00">
        <route edges="1:3"/>
    </vehicle>
    <vehicle id="303" depart="303.00">
        <route edges="2:0 0:1"/>
    </vehicle>
    <vehicle id="308" depart="308.00">
        <route edges="1:3 3:7"/>
    </vehicle>
    <vehicle id="309" depart="309.00">
        <route edges="3:1 1:5 5:6"/>
    </vehicle>
    <vehicle id="311" depart="311.00">
        <route edges="7:3 3:1 1:0 0:2"/>
    </vehicle>
    <vehicle id="313" depart="313.00">
        <route edges="7:3 3:1"/>
    </vehicle>
    <vehicle id="314" depart="314.00">
        <route edges="3:1 1:5 5:6"/>
    </vehicle>
    <vehicle id="316" depart="316.00">
        <route edges="1:0 0:2"/>
    </vehicle>
    <vehicle id="319" depart="319.00">
        <route edges="3:1 1:0"/>
    </vehicle>
    <vehicle id="320" depart="320.00">
        <route edges="3:1 1:5 5:6"/>
    </vehicle>
    <vehicle id="321" depart="321.00">
        <route edges="7:3 3:1 1:0"/>
    </vehicle>
    <vehicle id="322" depart="322.00">
        <route edges="6:5 5:1 1:0"/>
    </vehicle>
    <vehicle id="323" depart="323.00">
        <route edges="7:3 3:1 1:0"/>
    </vehicle>
    <vehicle id="324" depart="324.00">
        <route edges="1:0"/>
    </vehicle>
    <vehicle id="325" depart="325.00">
        <route edges="1:0 0:2"/>
    </vehicle>
    <vehicle id="326" depart="326.00">
        <route edges="6:5 5:1 1:0 0:2"/>
    </vehicle>
    <vehicle id="327" depart="327.00">
        <route edges="1:0 0:2"/>
    </vehicle>
    <vehicle id="328" depart="328.00">
        <route edges="3:1 1:5 5:6"/>
    </vehicle>
    <vehicle id="329" depart="329.00">
        <route edges="3:1 1:0 0:2"/>
    </vehicle>
    <vehicle id="330" depart="330.00">
        <route edges="6:5 5:1 1:3 3:7"/>
    </vehicle>
    <vehicle id="332" depart="332.00">
        <route edges="7:3 3:1 1:5"/>
    </vehicle>
    <vehicle id="334" depart="334.00">
        <route edges="1:0 0:2"/>
    </vehicle>
    <vehicle id="335" depart="335.00">
        <route edges="7:3 3:1 1:0 0:2"/>
    </vehicle>
    <vehicle id="336" depart="336.00">
        <route edges="7:3 3:1 1:0 0:2"/>
    </vehicle>
    <vehicle id="338" depart="338.00">
        <route edges="2:0 0:1 1:3 3:7"/>
    </vehicle>
    <vehicle id="340" depart="340.00">
        <route edges="7:3 3:1 1:0 0:2"/>
    </vehicle>
    <vehicle id="341" depart="341.00">
        <route edges="3:1 1:0 0:2"/>
    </vehicle>
    <vehicle id="342" depart="342.00">
        <route edges="2:0 0:1 1:5 5:6"/>
    </vehicle>
    <vehicle id="344" depart="344.00">
        <route edges="7:3 3:1 1:0 0:2"/>
    </vehicle>
    <vehicle id="345" depart="345.00">
        <route edges="1:0"/>
    </vehicle>
    <vehicle id="346" depart="346.00">
        <route edges="6:5 5:1 1:3 3:7"/>
    </vehicle>
    <vehicle id="348" depart="348.00">
        <route edges="1:3 3:7"/>
    </vehicle>
    <vehicle id="352" depart="352.00">
        <route edges="7:3 3:1 1:0 0:2"/>
    </vehicle>
    <vehicle id="353" depart="353.00">
        <route edges="6:5 5:1 1:3 3:7"/>
    </vehicle>
    <vehicle id="358" depart="358.00">
        <route edges="1:0"/>
    </vehicle>
    <vehicle id="360" depart="360.00">
        <route edges="2:0 0:1 1:3 3:7"/>
    </vehicle>
    <vehicle id="361" depart="361.00">
        <route edges="3:1 1:0 0:2"/>
    </vehicle>
    <vehicle id="362" depart="362.00">
        <route edges="2:0 0:1 1:3 3:7"/>
    </vehicle>
    <vehicle id="363" depart="363.00">
        <route edges="1:0 0:2"/>
    </vehicle>
    <vehicle id="364" depart="364.00">
        <route edges="2:0 0:1 1:3"/>
    </vehicle>
    <vehicle id="370" depart="370.00">
        <route edges="7:3 3:1 1:0 0:2"/>
    </vehicle>
    <vehicle id="371" depart="371.00">
        <route edges="5:1 1:3 3:7"/>
    </vehicle>
    <vehicle id="372" depart="372.00">
        <route edges="3:1 1:5 5:6"/>
    </vehicle>
    <vehicle id="373" depart="373.00">
        <route edges="1:0 0:2"/>
    </vehicle>
    <vehicle id="374" depart="374.00">
        <route edges="1:3 3:7"/>
    </vehicle>
    <vehicle id="375" depart="375.00">
        <route edges="0:1"/>
    </vehicle>
    <vehicle id="376" depart="376.00">
        <route edges="1:0"/>
    </vehicle>
    <vehicle id="378" depart="378.00">
        <route edges="3:1 1:0 0:2"/>
    </vehicle>
    <vehicle id="380" depart="380.00">
        <route edges="1:0 0:2"/>
    </vehicle>
    <vehicle id="381" depart="381.00">
        <route edges="7:3 3:1 1:0 0:2"/>
    </vehicle>
    <vehicle id="385" depart="385.00">
        <route edges="0:1 1:3 3:7"/>
    </vehicle>
    <vehicle id="386" depart="386.00">
        <route edges="2:0 0:1 1:3"/>
    </vehicle>
    <vehicle id="387" depart="387.00">
        <route edges="1:0"/>
    </vehicle>
    <vehicle id="388" depart="388.00">
        <route edges="2:0 0:1 1:3 3:7"/>
    </vehicle>
    <vehicle id="391" depart="391.00">
        <route edges="2:0 0:1 1:3"/>
    </vehicle>
    <vehicle id="394" depart="394.00">
        <route edges="7:3 3:1 1:0"/>
    </vehicle>
    <vehicle id="402" depart="402.00">
        <route edges="2:0 0:1 1:3"/>
    </vehicle>
    <vehicle id="407" depart="407.00">
        <route edges="0:1 1:3 3:7"/>
    </vehicle>
    <vehicle id="408" depart="408.00">
        <route edges="7:3 3:1 1:5 5:6"/>
    </vehicle>
    <vehicle id="409" depart="409.00">
        <route edges="0:1 1:3"/>
    </vehicle>
    <vehicle id="410" depart="410.00">
        <route edges="2:0 0:1"/>
    </vehicle>
    <vehicle id="411" depart="411.00">
        <route edges="7:3 3:1"/>
    </vehicle>
    <vehicle id="413" depart="413.00">
        <route edges="6:5 5:1"/>
    </vehicle>
    <vehicle id="416" depart="416.00">
        <route edges="7:3 3:1 1:0"/>
    </vehicle>
    <vehicle id="417" depart="417.00">
        <route edges="0:1"/>
    </vehicle>
    <vehicle id="419" depart="419.00">
        <route edges="3:1 1:0 0:2"/>
    </vehicle>
    <vehicle id="422" depart="422.00">
        <route edges="3:1 1:5 5:6"/>
    </vehicle>
    <vehicle id="423" depart="423.00">
        <route edges="2:0 0:1"/>
    </vehicle>
    <vehicle id="425" depart="425.00">
        <route edges="0:1 1:3 3:7"/>
    </vehicle>
    <vehicle id="429" depart="429.00">
        <route edges="7:3 3:1"/>
    </vehicle>
    <vehicle id="431" depart="431.00">
        <route edges="7:3 3:1 1:0 0:2"/>
    </vehicle>
    <vehicle id="432" depart="432.00">
        <route edges="2:0 0:1 1:3 3:7"/>
    </vehicle>
    <vehicle id="433" depart="433.00">
        <route edges="1:0"/>
    </vehicle>
    <vehicle id="434" depart="434.00">
        <route edges="3:1 1:0 0:2"/>
    </vehicle>
    <vehicle id="436" depart="436.00">
        <route edges="3:1 1:0 0:2"/>
    </vehicle>
    <vehicle id="438" depart="438.00">
        <route edges="1:3 3:7"/>
    </vehicle>
    <vehicle id="439" depart="439.00">
        <route edges="2:0 0:1 1:3 3:7"/>
    </vehicle>
    <vehicle id="440" depart="440.00">
        <route edges="5:1 1:0 0:2"/>
    </vehicle>
    <vehicle id="442" depart="442.00">
        <route edges="2:0 0:1"/>
    </vehicle>
    <vehicle id="443" depart="443.00">
        <route edges="2:0 0:1 1:5 5:6"/>
    </vehicle>
    <vehicle id="444" depart="444.00">
        <route edges="7:3 3:1 1:5 5:6"/>
    </vehicle>
    <vehicle id="446" depart="446.00">
        <route edges="5:1 1:0 0:2"/>
    </vehicle>
    <vehicle id="447" depart="447.00">
        <route edges="2:0 0:1"/>
    </vehicle>
    <vehicle id="453" depart="453.00">
        <route edges="2:0 0:1 1:5 5:6"/>
    </vehicle>
    <vehicle id="454" depart="454.00">
        <route edges="7:3 3:1 1:0 0:2"/>
    </vehicle>
    <vehicle id="456" depart="456.00">
        <route edges="6:5 5:1 1:0 0:2"/>
    </vehicle>
    <vehicle id="457" depart="457.00">
        <route edges="1:3 3:7"/>
    </vehicle>
    <vehicle id="460" depart="460.00">
        <route edges="7:3 3:1 1:0"/>
    </vehicle>
    <vehicle id="461" depart="461.00">
        <route edges="0:1"/>
    </vehicle>
    <vehicle id="465" depart="465.00">
        <route edges="1:0 0:2"/>
    </vehicle>
    <vehicle id="467" depart="467.00">
        <route edges="2:0 0:1"/>
    </vehicle>
    <vehicle id="468" depart="468.00">
        <route edges="7:3 3:1 1:0 0:2"/>
    </vehicle>
    <vehicle id="470" depart="470.00">
        <route edges="1:3"/>
    </vehicle>
    <vehicle id="471" depart="471.00">
        <route edges="7:3 3:1"/>
    </vehicle>
    <vehicle id="472" depart="472.00">
        <route edges="3:1 1:5"/>
    </vehicle>
    <vehicle id="476" depart="476.00">
        <route edges="3:1 1:0 0:2"/>
    </vehicle>
    <vehicle id="479" depart="479.00">
        <route edges="2:0 0:1"/>
    </vehicle>
    <vehicle id="480" depart="480.00">
        <route edges="2:0 0:1 1:3 3:7"/>
    </vehicle>
    <vehicle id="481" depart="481.00">
        <route edges="7:3 3:1"/>
    </vehicle>
    <vehicle id="482" depart="482.00">
        <route edges="3:1 1:0"/>
    </vehicle>
    <vehicle id="484" depart="484.00">
        <route edges="7:3 3:1 1:5 5:6"/>
    </vehicle>
    <vehicle id="489" depart="489.00">
        <route edges="2:0 0:1"/>
    </vehicle>
    <vehicle id="491" depart="491.00">
        <route edges="2:0 0:1 1:5 5:6"/>
    </vehicle>
    <vehicle id="492" depart="492.00">
        <route edges="1:3 3:7"/>
    </vehicle>
    <vehicle id="493" depart="493.00">
        <route edges="6:5 5:1 1:0"/>
    </vehicle>
    <vehicle id="494" depart="494.00">
        <route edges="2:0 0:1 1:3 3:7"/>
    </vehicle>
    <vehicle id="496" depart="496.00">
        <route edges="7:3 3:1 1:0 0:2"/>
    </vehicle>
    <vehicle id="498" depart="498.00">
        <route edges="1:0"/>
    </vehicle>
    <vehicle id="500" depart="500.00">
        <route edges="7:3 3:1"/>
    </vehicle>
    <vehicle id="505" depart="505.00">
        <route edges="0:1 1:5"/>
    </vehicle>
    <vehicle id="506" depart="506.00">
        <route edges="0:1 1:3"/>
    </vehicle>
    <vehicle id="509" depart="509.00">
        <route edges="3:1 1:5 5:6"/>
    </vehicle>
    <vehicle id="513" depart="513.00">
        <route edges="7:3 3:1"/>
    </vehicle>
    <vehicle id="516" depart="516.00">
        <route edges="3:1 1:5 5:6"/>
    </vehicle>
    <vehicle id="517" depart="517.00">
        <route edges="2:0 0:1 1:3 3:7"/>
    </vehicle>
    <vehicle id="520" depart="520.00">
        <route edges="0:1"/>
    </vehicle>
    <vehicle id="524" depart="524.00">
        <route edges="2:0 0:1 1:3 3:7"/>
    </vehicle>
    <vehicle id="528" depart="528.00">
        <route edges="2:0 0:1 1:3 3:7"/>
    </vehicle>
    <vehicle id="532" depart="532.00">
        <route edges="6:5 5:1 1:3 3:7"/>
    </vehicle>
    <vehicle id="533" depart="533.00">
        <route edges="3:1 1:0"/>
    </vehicle>
    <vehicle id="534" depart="534.00">
        <route edges="2:0 0:1 1:3"/>
    </vehicle>
    <vehicle id="538" depart="538.00">
        <route edges="2:0 0:1 1:3 3:7"/>
    </vehicle>
    <vehicle id="541" depart="541.00">
        <route edges="3:1 1:0"/>
    </vehicle>
    <vehicle id="545" depart="545.00">
        <route edges="3:1 1:0 0:2"/>
    </vehicle>
    <vehicle id="546" depart="546.00">
        <route edges="7:3 3:1 1:5 5:6"/>
    </vehicle>
    <vehicle id="547" depart="547.00">
        <route edges="2:0 0:1"/>
    </vehicle>
    <vehicle id="549" depart="549.00">
        <route edges="0:1 1:3"/>
    </vehicle>
    <vehicle id="552" depart="552.00">
        <route edges="0:1"/>
    </vehicle>
    <vehicle id="553" depart="553.00">
        <route edges="2:0 0:1"/>
    </vehicle>
    <vehicle id="556" depart="556.00">
        <route edges="0:1"/>
    </vehicle>
    <vehicle id="558" depart="558.00">
        <route edges="2:0 0:1 1:3 3:7"/>
    </vehicle>
    <vehicle id="561" depart="561.00">
        <route edges="0:1"/>
    </vehicle>
    <vehicle id="563" depart="563.00">
        <route edges="7:3 3:1"/>
    </vehicle>
    <vehicle id="567" depart="567.00">
        <route edges="6:5 5:1 1:0 0:2"/>
    </vehicle>
    <vehicle id="570" depart="570.00">
        <route edges="2:0 0:1"/>
    </vehicle>
    <vehicle id="571" depart="571.00">
        <route edges="3:1"/>
    </vehicle>
    <vehicle id="572" depart="572.00">
        <route edges="0:1 1:3 3:7"/>
    </vehicle>
    <vehicle id="574" depart="574.00">
        <route edges="7:3 3:1 1:0"/>
    </vehicle>
    <vehicle id="577" depart="577.00">
        <route edges="0:1 1:3 3:7"/>
    </vehicle>
    <vehicle id="582" depart="582.00">
        <route edges="3:1 1:5 5:6"/>
    </vehicle>
    <vehicle id="584" depart="584.00">
        <route edges="7:3 3:1 1:0 0:2"/>
    </vehicle>
    <vehicle id="585" depart="585.00">
        <route edges="7:3 3:1 1:0"/>
    </vehicle>
    <vehicle id="588" depart="588.00">
        <route edges="2:0 0:1 1:3"/>
    </vehicle>
    <vehicle id="589" depart="589.00">
        <route edges="7:3 3:1 1:0 0:2"/>
    </vehicle>
    <vehicle id="590" depart="590.00">
        <route edges="1:0 0:2"/>
    </vehicle>
    <vehicle id="592" depart="592.00">
        <route edges="0:1 1:5 5:6"/>
    </vehicle>
    <vehicle id="594" depart="594.00">
        <route edges="7:3 3:1 1:5 5:6"/>
    </vehicle>
    <vehicle id="596" depart="596.00">
        <route edges="2:0 0:1 1:3"/>
    </vehicle>
    <vehicle id="597" depart="597.00">
        <route edges="7:3 3:1 1:0 0:2"/>
    </vehicle>
    <vehicle id="598" depart="598.00">
        <route edges="5:1 1:3 3:7"/>
    </vehicle>
    <vehicle id="600" depart="600.00">
        <route edges="2:0 0:1 1:3 3:7"/>
    </vehicle>
    <vehicle id="602" depart="602.00">
        <route edges="7:3 3:1 1:0 0:2"/>
    </vehicle>
    <vehicle id="603" depart="603.00">
        <route edges="1:3 3:7"/>
    </vehicle>
    <vehicle id="605" depart="605.00">
        <route edges="7:3 3:1"/>
    </vehicle>
    <vehicle id="606" depart="606.00">
        <route edges="6:5 5:1 1:0 0:2"/>
    </vehicle>
    <vehicle id="607" depart="607.00">
        <route edges="3:1 1:5 5:6"/>
    </vehicle>
    <vehicle id="608" depart="608.00">
        <route edges="2:0 0:1 1:5"/>
    </vehicle>
    <vehicle id="613" depart="613.00">
        <route edges="2:0 0:1 1:3 3:7"/>
    </vehicle>
    <vehicle id="615" depart="615.00">
        <route edges="0:1"/>
    </vehicle>
    <vehicle id="616" depart="616.00">
        <route edges="2:0 0:1 1:3"/>
    </vehicle>
    <vehicle id="617" depart="617.00">
        <route edges="2:0 0:1 1:5 5:6"/>
    </vehicle>
    <vehicle id="618" depart="618.00">
        <route edges="7:3 3:1"/>
    </vehicle>
    <vehicle id="620" depart="620.00">
        <route edges="2:0 0:1"/>
    </vehicle>
    <vehicle id="624" depart="624.00">
        <route edges="7:3 3:1 1:5 5:6"/>
    </vehicle>
    <vehicle id="627" depart="627.00">
        <route edges="7:3 3:1 1:0"/>
    </vehicle>
    <vehicle id="629" depart="629.00">
        <route edges="2:0 0:1 1:3 3:7"/>
    </vehicle>
    <vehicle id="631" depart="631.00">
        <route edges="1:3 3:7"/>
    </vehicle>
    <vehicle id="632" depart="632.00">
        <route edges="0:1 1:3 3:7"/>
    </vehicle>
    <vehicle id="633" depart="633.00">
        <route edges="7:3 3:1"/>
    </vehicle>
    <vehicle id="634" depart="634.00">
        <route edges="7:3 3:1 1:5"/>
    </vehicle>
    <vehicle id="635" depart="635.00">
        <route edges="7:3 3:1 1:0 0:2"/>
    </vehicle>
    <vehicle id="638" depart="638.00">
        <route edges="3:1"/>
    </vehicle>
    <vehicle id="642" depart="642.00">
        <route edges="6:5 5:1 1:0"/>
    </vehicle>
    <vehicle id="643" depart="643.00">
        <route edges="2:0 0:1 1:3"/>
    </vehicle>
    <vehicle id="648" depart="648.00">
        <route edges="2:0 0:1 1:3"/>
    </vehicle>
    <vehicle id="649" depart="649.00">
        <route edges="2:0 0:1 1:3 3:7"/>
    </vehicle>
    <vehicle id="650" depart="650.00">