<?xml version="1.0" encoding="UTF-8"?>

<!-- generated on Thu Feb 13 12:39:11 2014 by SUMO duarouter Version 0.18.0
<?xml version="1.0" encoding="UTF-8"?>

<configuration xmlns:xsi="http://www.w3.org/2001/XMLSchema-instance" xsi:noNamespaceSchemaLocation="http://sumo.sf.net/xsd/duarouterConfiguration.xsd">

    <input>
        <net-file value="simpleT.net.xml"/>
        <trip-files value="experimentos/simpleT.p0.4.6.trips.xml"/>
    </input>

    <output>
        <output-file value="experimentos/simpleT.p0.4.6.rou.xml"/>
    </output>

    <processing>
        <ignore-errors value="true"/>
    </processing>

    <random_number>
        <random value="true"/>
    </random_number>

</configuration>
-->

<routes xmlns:xsi="http://www.w3.org/2001/XMLSchema-instance" xsi:noNamespaceSchemaLocation="http://sumo.sf.net/xsd/routes_file.xsd">
    <vehicle id="0" depart="0.00">
        <route edges="7:3 3:1 1:5 5:6"/>
    </vehicle>
    <vehicle id="1" depart="0.40">
        <route edges="1:3 3:7"/>
    </vehicle>
    <vehicle id="2" depart="0.80">
        <route edges="2:0 0:1 1:3 3:7"/>
    </vehicle>
    <vehicle id="3" depart="1.20">
        <route edges="3:1 1:0"/>
    </vehicle>
    <vehicle id="5" depart="2.00">
        <route edges="3:1 1:5 5:6"/>
    </vehicle>
    <vehicle id="6" depart="2.40">
        <route edges="2:0 0:1"/>
    </vehicle>
    <vehicle id="8" depart="3.20">
        <route edges="2:0 0:1 1:3 3:7"/>
    </vehicle>
    <vehicle id="9" depart="3.60">
        <route edges="1:0"/>
    </vehicle>
    <vehicle id="10" depart="4.00">
        <route edges="7:3 3:1 1:0 0:2"/>
    </vehicle>
    <vehicle id="11" depart="4.40">
        <route edges="7:3 3:1 1:5 5:6"/>
    </vehicle>
    <vehicle id="13" depart="5.20">
        <route edges="7:3 3:1"/>
    </vehicle>
    <vehicle id="15" depart="6.00">
        <route edges="7:3 3:1"/>
    </vehicle>
    <vehicle id="16" depart="6.40">
        <route edges="3:1 1:5"/>
    </vehicle>
    <vehicle id="18" depart="7.20">
        <route edges="5:1 1:3 3:7"/>
    </vehicle>
    <vehicle id="19" depart="7.60">
        <route edges="6:5 5:1 1:0"/>
    </vehicle>
    <vehicle id="20" depart="8.00">
        <route edges="7:3 3:1"/>
    </vehicle>
    <vehicle id="24" depart="9.60">
        <route edges="3:1 1:5"/>
    </vehicle>
    <vehicle id="25" depart="10.00">
        <route edges="1:3 3:7"/>
    </vehicle>
    <vehicle id="26" depart="10.40">
        <route edges="0:1 1:5 5:6"/>
    </vehicle>
    <vehicle id="27" depart="10.80">
        <route edges="1:3 3:7"/>
    </vehicle>
    <vehicle id="28" depart="11.20">
        <route edges="5:1 1:3 3:7"/>
    </vehicle>
    <vehicle id="35" depart="14.00">
        <route edges="2:0 0:1 1:3"/>
    </vehicle>
    <vehicle id="37" depart="14.80">
        <route edges="6:5 5:1 1:0"/>
    </vehicle>
    <vehicle id="46" depart="18.40">
        <route edges="7:3 3:1 1:5"/>
    </vehicle>
    <vehicle id="47" depart="18.80">
        <route edges="0:1 1:5 5:6"/>
    </vehicle>
    <vehicle id="49" depart="19.60">
        <route edges="3:1 1:5"/>
    </vehicle>
    <vehicle id="54" depart="21.60">
        <route edges="2:0 0:1 1:3 3:7"/>
    </vehicle>
    <vehicle id="55" depart="22.00">
        <route edges="3:1 1:0 0:2"/>
    </vehicle>
    <vehicle id="57" depart="22.80">
        <route edges="6:5 5:1 1:0 0:2"/>
    </vehicle>
    <vehicle id="58" depart="23.20">
        <route edges="2:0 0:1"/>
    </vehicle>
    <vehicle id="59" depart="23.60">
        <route edges="2:0 0:1 1:3"/>
    </vehicle>
    <vehicle id="63" depart="25.20">
        <route edges="7:3 3:1 1:5"/>
    </vehicle>
    <vehicle id="66" depart="26.40">
        <route edges="2:0 0:1 1:3 3:7"/>
    </vehicle>
    <vehicle id="67" depart="26.80">
        <route edges="1:3 3:7"/>
    </vehicle>
    <vehicle id="70" depart="28.00">
        <route edges="2:0 0:1 1:3"/>
    </vehicle>
    <vehicle id="71" depart="28.40">
        <route edges="6:5 5:1 1:0 0:2"/>
    </vehicle>
    <vehicle id="73" depart="29.20">
        <route edges="2:0 0:1 1:3 3:7"/>
    </vehicle>
    <vehicle id="75" depart="30.00">
        <route edges="6:5 5:1 1:0 0:2"/>
    </vehicle>
    <vehicle id="77" depart="30.80">
        <route edges="0:1 1:3 3:7"/>
    </vehicle>
    <vehicle id="78" depart="31.20">
        <route edges="3:1 1:0 0:2"/>
    </vehicle>
    <vehicle id="80" depart="32.00">
        <route edges="7:3 3:1 1:0 0:2"/>
    </vehicle>
    <vehicle id="82" depart="32.80">
        <route edges="6:5 5:1 1:0 0:2"/>
    </vehicle>
    <vehicle id="83" depart="33.20">
        <route edges="2:0 0:1 1:3"/>
    </vehicle>
    <vehicle id="87" depart="34.80">
        <route edges="6:5 5:1 1:0"/>
    </vehicle>
    <vehicle id="88" depart="35.20">
        <route edges="2:0 0:1 1:3"/>
    </vehicle>
    <vehicle id="91" depart="36.40">
        <route edges="1:3 3:7"/>
    </vehicle>
    <vehicle id="92" depart="36.80">
        <route edges="7:3 3:1 1:0"/>
    </vehicle>
    <vehicle id="95" depart="38.00">
        <route edges="6:5 5:1 1:3 3:7"/>
    </vehicle>
    <vehicle id="98" depart="39.20">
        <route edges="0:1 1:5 5:6"/>
    </vehicle>
    <vehicle id="99" depart="39.60">
        <route edges="1:3"/>
    </vehicle>
    <vehicle id="102" depart="40.80">
        <route edges="2:0 0:1 1:3 3:7"/>
    </vehicle>
    <vehicle id="103" depart="41.20">
        <route edges="0:1 1:5"/>
    </vehicle>
    <vehicle id="104" depart="41.60">
        <route edges="1:0 0:2"/>
    </vehicle>
    <vehicle id="105" depart="42.00">
        <route edges="1:3 3:7"/>
    </vehicle>
    <vehicle id="110" depart="44.00">
        <route edges="5:1 1:3 3:7"/>
    </vehicle>
    <vehicle id="112" depart="44.80">
        <route edges="7:3 3:1 1:5 5:6"/>
    </vehicle>
    <vehicle id="115" depart="46.00">
        <route edges="3:1 1:5"/>
    </vehicle>
    <vehicle id="116" depart="46.40">
        <route edges="3:1 1:5 5:6"/>
    </vehicle>
    <vehicle id="119" depart="47.60">
        <route edges="5:1 1:0"/>
    </vehicle>
    <vehicle id="120" depart="48.00">
        <route edges="7:3 3:1 1:0 0:2"/>
    </vehicle>
    <vehicle id="125" depart="50.00">
        <route edges="2:0 0:1 1:3 3:7"/>
    </vehicle>
    <vehicle id="128" depart="51.20">
        <route edges="2:0 0:1 1:3 3:7"/>
    </vehicle>
    <vehicle id="131" depart="52.40">
        <route edges="2:0 0:1 1:5 5:6"/>
    </vehicle>
    <vehicle id="132" depart="52.80">
        <route edges="2:0 0:1 1:5 5:6"/>
    </vehicle>
    <vehicle id="133" depart="53.20">
        <route edges="3:1"/>
    </vehicle>
    <vehicle id="137" depart="54.80">
        <route edges="3:1 1:5 5:6"/>
    </vehicle>
    <vehicle id="138" depart="55.20">
        <route edges="2:0 0:1 1:3 3:7"/>
    </vehicle>
    <vehicle id="139" depart="55.60">
        <route edges="5:1 1:3 3:7"/>
    </vehicle>
    <vehicle id="140" depart="56.00">
        <route edges="7:3 3:1 1:0 0:2"/>
    </vehicle>
    <vehicle id="141" depart="56.40">
        <route edges="7:3 3:1 1:0"/>
    </vehicle>
    <vehicle id="142" depart="56.80">
        <route edges="3:1 1:5"/>
    </vehicle>
    <vehicle id="143" depart="57.20">
        <route edges="7:3 3:1 1:0 0:2"/>
    </vehicle>
    <vehicle id="144" depart="57.60">
        <route edges="2:0 0:1 1:3 3:7"/>
    </vehicle>
    <vehicle id="145" depart="58.00">
        <route edges="0:1 1:5"/>
    </vehicle>
    <vehicle id="147" depart="58.80">
        <route edges="3:1"/>
    </vehicle>
    <vehicle id="148" depart="59.20">
        <route edges="3:1 1:0"/>
    </vehicle>
    <vehicle id="153" depart="61.20">
        <route edges="3:1 1:0 0:2"/>
    </vehicle>
    <vehicle id="154" depart="61.60">
        <route edges="1:0"/>
    </vehicle>
    <vehicle id="156" depart="62.40">
        <route edges="2:0 0:1 1:5 5:6"/>
    </vehicle>
    <vehicle id="158" depart="63.20">
        <route edges="0:1"/>
    </vehicle>
    <vehicle id="162" depart="64.80">
        <route edges="7:3 3:1 1:0 0:2"/>
    </vehicle>
    <vehicle id="164" depart="65.60">
        <route edges="2:0 0:1 1:3 3:7"/>
    </vehicle>
    <vehicle id="166" depart="66.40">
        <route edges="7:3 3:1"/>
    </vehicle>
    <vehicle id="167" depart="66.80">
        <route edges="0:1 1:3 3:7"/>
    </vehicle>
    <vehicle id="170" depart="68.00">
        <route edges="2:0 0:1 1:3"/>
    </vehicle>
    <vehicle id="171" depart="68.40">
        <route edges="6:5 5:1 1:0 0:2"/>
    </vehicle>
    <vehicle id="172" depart="68.80">
        <route edges="7:3 3:1 1:0 0:2"/>
    </vehicle>
    <vehicle id="174" depart="69.60">
        <route edges="1:0 0:2"/>
    </vehicle>
    <vehicle id="175" depart="70.00">
        <route edges="6:5 5:1 1:3"/>
    </vehicle>
    <vehicle id="176" depart="70.40">
        <route edges="1:3"/>
    </vehicle>
    <vehicle id="177" depart="70.80">
        <route edges="7:3 3:1 1:5 5:6"/>
    </vehicle>
    <vehicle id="180" depart="72.00">
        <route edges="3:1 1:0"/>
    </vehicle>
    <vehicle id="183" depart="73.20">
        <route edges="7:3 3:1 1:0 0:2"/>
    </vehicle>
    <vehicle id="184" depart="73.60">
        <route edges="2:0 0:1 1:3 3:7"/>
    </vehicle>
    <vehicle id="188" depart="75.20">
        <route edges="2:0 0:1 1:3 3:7"/>
    </vehicle>
    <vehicle id="189" depart="75.60">
        <route edges="2:0 0:1 1:3 3:7"/>
    </vehicle>
    <vehicle id="191" depart="76.40">
        <route edges="6:5 5:1 1:3 3:7"/>
    </vehicle>
    <vehicle id="192" depart="76.80">
        <route edges="2:0 0:1 1:5 5:6"/>
    </vehicle>
    <vehicle id="193" depart="77.20">
        <route edges="7:3 3:1 1:0 0:2"/>
    </vehicle>
    <vehicle id="196" depart="78.40">
        <route edges="0:1 1:3 3:7"/>
    </vehicle>
    <vehicle id="197" depart="78.80">
        <route edges="6:5 5:1 1:3 3:7"/>
    </vehicle>
    <vehicle id="199" depart="79.60">
        <route edges="1:3"/>
    </vehicle>
    <vehicle id="203" depart="81.20">
        <route edges="2:0 0:1 1:3 3:7"/>
    </vehicle>
    <vehicle id="204" depart="81.60">
        <route edges="2:0 0:1 1:3 3:7"/>
    </vehicle>
    <vehicle id="207" depart="82.80">
        <route edges="0:1 1:5"/>
    </vehicle>
    <vehicle id="208" depart="83.20">
        <route edges="2:0 0:1 1:3 3:7"/>
    </vehicle>
    <vehicle id="210" depart="84.00">
        <route edges="0:1"/>
    </vehicle>
    <vehicle id="211" depart="84.40">
        <route edges="1:0 0:2"/>
    </vehicle>
    <vehicle id="212" depart="84.80">
        <route edges="1:3"/>
    </vehicle>
    <vehicle id="213" depart="85.20">
        <route edges="6:5 5:1 1:3"/>
    </vehicle>
    <vehicle id="214" depart="85.60">
        <route edges="6:5 5:1 1:3 3:7"/>
    </vehicle>
    <vehicle id="216" depart="86.40">
        <route edges="2:0 0:1 1:3 3:7"/>
    </vehicle>
    <vehicle id="217" depart="86.80">
        <route edges="2:0 0:1 1:3 3:7"/>
    </vehicle>
    <vehicle id="218" depart="87.20">
        <route edges="6:5 5:1"/>
    </vehicle>
    <vehicle id="219" depart="87.60">
        <route edges="1:5"/>
    </vehicle>
    <vehicle id="222" depart="88.80">
        <route edges="2:0 0:1"/>
    </vehicle>
    <vehicle id="225" depart="90.00">
        <route edges="3:1 1:0"/>
    </vehicle>
    <vehicle id="226" depart="90.40">
        <route edges="2:0 0:1 1:3 3:7"/>
    </vehicle>
    <vehicle id="227" depart="90.80">
        <route edges="2:0 0:1 1:3"/>
    </vehicle>
    <vehicle id="228" depart="91.20">
        <route edges="6:5 5:1 1:0"/>
    </vehicle>
    <vehicle id="230" depart="92.00">
        <route edges="2:0 0:1 1:3 3:7"/>
    </vehicle>
    <vehicle id="233" depart="93.20">
        <route edges="3:1"/>
    </vehicle>
    <vehicle id="234" depart="93.60">
        <route edges="2:0 0:1"/>
    </vehicle>
    <vehicle id="236" depart="94.40">
        <route edges="2:0 0:1"/>
    </vehicle>
    <vehicle id="237" depart="94.80">
        <route edges="0:1 1:3 3:7"/>
    </vehicle>
    <vehicle id="238" depart="95.20">
        <route edges="3:1 1:0"/>
    </vehicle>
    <vehicle id="241" depart="96.40">
        <route edges="0:1 1:3 3:7"/>
    </vehicle>
    <vehicle id="242" depart="96.80">
        <route edges="0:1 1:5"/>
    </vehicle>
    <vehicle id="245" depart="98.00">
        <route edges="2:0 0:1 1:3"/>
    </vehicle>
    <vehicle id="248" depart="99.20">
        <route edges="6:5 5:1 1:0 0:2"/>
    </vehicle>
    <vehicle id="250" depart="100.00">
        <route edges="0:1 1:3"/>
    </vehicle>
    <vehicle id="251" depart="100.40">
        <route edges="3:1"/>
    </vehicle>
    <vehicle id="253" depart="101.20">
        <route edges="7:3 3:1 1:0"/>
    </vehicle>
    <vehicle id="254" depart="101.60">
        <route edges="0:1 1:5"/>
    </vehicle>
    <vehicle id="256" depart="102.40">
        <route edges="7:3 3:1 1:5"/>
    </vehicle>
    <vehicle id="259" depart="103.60">
        <route edges="7:3 3:1 1:0 0:2"/>
    </vehicle>
    <vehicle id="264" depart="105.60">
        <route edges="1:3 3:7"/>
    </vehicle>
    <vehicle id="265" depart="106.00">
        <route edges="7:3 3:1 1:0 0:2"/>
    </vehicle>
    <vehicle id="270" depart="108.00">
        <route edges="2:0 0:1 1:5 5:6"/>
    </vehicle>
    <vehicle id="272" depart="108.80">
        <route edges="7:3 3:1 1:0"/>
    </vehicle>
    <vehicle id="276" depart="110.40">
        <route edges="7:3 3:1 1:0"/>
    </vehicle>
    <vehicle id="277" depart="110.80">
        <route edges="7:3 3:1"/>
    </vehicle>
    <vehicle id="284" depart="113.60">
        <route edges="2:0 0:1"/>
    </vehicle>
    <vehicle id="285" depart="114.00">
        <route edges="6:5 5:1 1:0"/>
    </vehicle>
    <vehicle id="288" depart="115.20">
        <route edges="1:3 3:7"/>
    </vehicle>
    <vehicle id="289" depart="115.60">
        <route edges="2:0 0:1 1:3 3:7"/>
    </vehicle>
    <vehicle id="292" depart="116.80">
        <route edges="2:0 0:1 1:5 5:6"/>
    </vehicle>
    <vehicle id="293" depart="117.20">
        <route edges="2:0 0:1"/>
    </vehicle>
    <vehicle id="304" depart="121.60">
        <route edges="7:3 3:1 1:0 0:2"/>
    </vehicle>
    <vehicle id="307" depart="122.80">
        <route edges="3:1 1:0"/>
    </vehicle>
    <vehicle id="314" depart="125.60">
        <route edges="0:1 1:5 5:6"/>
    </vehicle>
    <vehicle id="315" depart="126.00">
        <route edges="7:3 3:1 1:0 0:2"/>
    </vehicle>
    <vehicle id="320" depart="128.00">
        <route edges="2:0 0:1"/>
    </vehicle>
    <vehicle id="321" depart="128.40">
        <route edges="7:3 3:1 1:0 0:2"/>
    </vehicle>
    <vehicle id="325" depart="130.00">
        <route edges="2:0 0:1 1:3"/>
    </vehicle>
    <vehicle id="326" depart="130.40">
        <route edges="7:3 3:1 1:0"/>
    </vehicle>
    <vehicle id="327" depart="130.80">
        <route edges="7:3 3:1 1:0 0:2"/>
    </vehicle>
    <vehicle id="330" depart="132.00">
        <route edges="7:3 3:1"/>
    </vehicle>
    <vehicle id="331" depart="132.40">
        <route edges="0:1 1:3"/>
    </vehicle>
    <vehicle id="333" depart="133.20">
        <route edges="7:3 3:1"/>
    </vehicle>
    <vehicle id="335" depart="134.00">
        <route edges="0:1 1:3"/>
    </vehicle>
    <vehicle id="338" depart="135.20">
        <route edges="6:5 5:1 1:3 3:7"/>
    </vehicle>
    <vehicle id="341" depart="136.40">
        <route edges="6:5 5:1 1:0 0:2"/>
    </vehicle>
    <vehicle id="342" depart="136.80">
        <route edges="7:3 3:1 1:0"/>
    </vehicle>
    <vehicle id="344" depart="137.60">
        <route edges="7:3 3:1"/>
    </vehicle>
    <vehicle id="348" depart="139.20">
        <route edges="1:5 5:6"/>
    </vehicle>
    <vehicle id="350" depart="140.00">
        <route edges="3:1 1:0 0:2"/>
    </vehicle>
    <vehicle id="351" depart="140.40">
        <route edges="7:3 3:1 1:0 0:2"/>
    </vehicle>
    <vehicle id="352" depart="140.80">
        <route edges="1:0 0:2"/>
    </vehicle>
    <vehicle id="355" depart="142.00">
        <route edges="7:3 3:1 1:5 5:6"/>
    </vehicle>
    <vehicle id="356" depart="142.40">
        <route edges="0:1"/>
    </vehicle>
    <vehicle id="357" depart="142.80">
        <route edges="3:1"/>
    </vehicle>
    <vehicle id="359" depart="143.60">
        <route edges="2:0 0:1 1:3 3:7"/>
    </vehicle>
    <vehicle id="360" depart="144.00">
        <route edges="3:1 1:0"/>
    </vehicle>
    <vehicle id="365" depart="146.00">
        <route edges="2:0 0:1"/>
    </vehicle>
    <vehicle id="366" depart="146.40">
        <route edges="2:0 0:1 1:3 3:7"/>
    </vehicle>
    <vehicle id="367" depart="146.80">
        <route edges="7:3 3:1 1:0 0:2"/>
    </vehicle>
    <vehicle id="374" depart="149.60">
        <route edges="0:1 1:3 3:7"/>
    </vehicle>
    <vehicle id="375" depart="150.00">
        <route edges="0:1 1:3 3:7"/>
    </vehicle>
    <vehicle id="376" depart="150.40">
        <route edges="6:5 5:1 1:0 0:2"/>
    </vehicle>
    <vehicle id="377" depart="150.80">
        <route edges="7:3 3:1 1:0 0:2"/>
    </vehicle>
    <vehicle id="378" depart="151.20">
        <route edges="3:1 1:5 5:6"/>
    </vehicle>
    <vehicle id="380" depart="152.00">
        <route edges="2:0 0:1 1:5 5:6"/>
    </vehicle>
    <vehicle id="381" depart="152.40">
        <route edges="7:3 3:1 1:0"/>
    </vehicle>
    <vehicle id="383" depart="153.20">
        <route edges="0:1 1:3"/>
    </vehicle>
    <vehicle id="385" depart="154.00">
        <route edges="6:5 5:1 1:0 0:2"/>
    </vehicle>
    <vehicle id="388" depart="155.20">
        <route edges="0:1"/>
    </vehicle>
    <vehicle id="389" depart="155.60">
        <route edges="0:1 1:3"/>
    </vehicle>
    <vehicle id="392" depart="156.80">
        <route edges="7:3 3:1 1:0 0:2"/>
    </vehicle>
    <vehicle id="394" depart="157.60">
        <route edges="3:1"/>
    </vehicle>
    <vehicle id="395" depart="158.00">
        <route edges="2:0 0:1 1:3 3:7"/>
    </vehicle>
    <vehicle id="396" depart="158.40">
        <route edges="0:1 1:5"/>
    </vehicle>
    <vehicle id="397" depart="158.80">
        <route edges="7:3 3:1 1:0 0:2"/>
    </vehicle>
    <vehicle id="398" depart="159.20">
        <route edges="0:1 1:5"/>
    </vehicle>
    <vehicle id="400" depart="160.00">
        <route edges="7:3 3:1 1:0 0:2"/>
    </vehicle>
    <vehicle id="402" depart="160.80">
        <route edges="0:1 1:3 3:7"/>
    </vehicle>
    <vehicle id="404" depart="161.60">
        <route edges="1:0 0:2"/>
    </vehicle>
    <vehicle id="406" depart="162.40">
        <route edges="3:1 1:5"/>
    </vehicle>
    <vehicle id="407" depart="162.80">
        <route edges="0:1 1:3 3:7"/>
    </vehicle>
    <vehicle id="408" depart="163.20">
        <route edges="5:1 1:3 3:7"/>
    </vehicle>
    <vehicle id="411" depart="164.40">
        <route edges="5:1 1:3 3:7"/>
    </vehicle>
    <vehicle id="415" depart="166.00">
        <route edges="1:3 3:7"/>
    </vehicle>
    <vehicle id="421" depart="168.40">
        <route edges="2:0 0:1 1:3 3:7"/>
    </vehicle>
    <vehicle id="427" depart="170.80">
        <route edges="6:5 5:1 1:3 3:7"/>
    </vehicle>
    <vehicle id="429" depart="171.60">
        <route edges="3:1 1:5 5:6"/>
    </vehicle>
    <vehicle id="433" depart="173.20">
        <route edges="6:5 5:1"/>
    </vehicle>
    <vehicle id="434" depart="173.60">
        <route edges="0:1 1:3 3:7"/>
    </vehicle>
    <vehicle id="435" depart="174.00">
        <route edges="0:1 1:3 3:7"/>
    </vehicle>
    <vehicle id="436" depart="174.40">
        <route edges="2:0 0:1"/>
    </vehicle>
    <vehicle id="439" depart="175.60">
        <route edges="6:5 5:1 1:0"/>
    </vehicle>
    <vehicle id="442" depart="176.80">
        <route edges="2:0 0:1 1:3 3:7"/>
    </vehicle>
    <vehicle id="444" depart="177.60">
        <route edges="5:1 1:0 0:2"/>
    </vehicle>
    <vehicle id="445" depart="178.00">
        <route edges="2:0 0:1 1:3 3:7"/>
    </vehicle>
    <vehicle id="446" depart="178.40">
        <route edges="2:0 0:1 1:5 5:6"/>
    </vehicle>
    <vehicle id="449" depart="179.60">
        <route edges="7:3 3:1 1:5 5:6"/>
    </vehicle>
    <vehicle id="450" depart="180.00">
        <route edges="2:0 0:1 1:3"/>
    </vehicle>
    <vehicle id="455" depart="182.00">
        <route edges="3:1 1:5"/>
    </vehicle>
    <vehicle id="456" depart="182.40">
        <route edges="2:0 0:1 1:3 3:7"/>
    </vehicle>
    <vehicle id="457" depart="182.80">
        <route edges="2:0 0:1 1:5"/>
    </vehicle>
    <vehicle id="458" depart="183.20">
        <route edges="7:3 3:1 1:0 0:2"/>
    </vehicle>
    <vehicle id="463" depart="185.20">
        <route edges="6:5 5:1 1:3 3:7"/>
    </vehicle>
    <vehicle id="465" depart="186.00">
        <route edges="2:0 0:1"/>
    </vehicle>
    <vehicle id="466" depart="186.40">
        <route edges="7:3 3:1"/>
    </vehicle>
    <vehicle id="468" depart="187.20">
        <route edges="2:0 0:1 1:5"/>
    </vehicle>
    <vehicle id="470" depart="188.00">
        <route edges="2:0 0:1 1:3 3:7"/>
    </vehicle>
    <vehicle id="471" depart="188.40">
        <route edges="5:1 1:3 3:7"/>
    </vehicle>
    <vehicle id="472" depart="188.80">
        <route edges="3:1 1:0 0:2"/>
    </vehicle>
    <vehicle id="474" depart="189.60">
        <route edges="3:1 1:0"/>
    </vehicle>
    <vehicle id="476" depart="190.40">
        <route edges="2:0 0:1"/>
    </vehicle>
    <vehicle id="479" depart="191.60">
        <route edges="6:5 5:1 1:0 0:2"/>
    </vehicle>
    <vehicle id="480" depart="192.00">
        <route edges="7:3 3:1 1:0 0:2"/>
    </vehicle>
    <vehicle id="481" depart="192.40">
        <route edges="1:3 3:7"/>
    </vehicle>
    <vehicle id="483" depart="193.20">
        <route edges="3:1 1:5 5:6"/>
    </vehicle>
    <vehicle id="485" depart="194.00">
        <route edges="7:3 3:1 1:0 0:2"/>
    </vehicle>
    <vehicle id="486" depart="194.40">
        <route edges="0:1 1:3 3:7"/>
    </vehicle>
    <vehicle id="487" depart="194.80">
        <route edges="1:0 0:2"/>
    </vehicle>
    <vehicle id="488" depart="195.20">
        <route edges="3:1 1:0 0:2"/>
    </vehicle>
    <vehicle id="491" depart="196.40">
        <route edges="6:5 5:1 1:3 3:7"/>
    </vehicle>
    <vehicle id="493" depart="197.20">
        <route edges="7:3 3:1 1:0 0:2"/>
    </vehicle>
    <vehicle id="494" depart="197.60">
        <route edges="6:5 5:1 1:3 3:7"/>
    </vehicle>
    <vehicle id="495" depart="198.00">
        <route edges="0:1 1:5 5:6"/>
    </vehicle>
    <vehicle id="496" depart="198.40">
        <route edges="7:3 3:1"/>
    </vehicle>
    <vehicle id="501" depart="200.40">
        <route edges="3:1 1:0"/>
    </vehicle>
    <vehicle id="502" depart="200.80">
        <route edges="6:5 5:1 1:3 3:7"/>
    </vehicle>
    <vehicle id="504" depart="201.60">
        <route edges="3:1 1:5"/>
    </vehicle>
    <vehicle id="506" depart="202.40">
        <route edges="7:3 3:1 1:5"/>
    </vehicle>
    <vehicle id="510" depart="204.00">
        <route edges="7:3 3:1 1:0 0:2"/>
    </vehicle>
    <vehicle id="513" depart="205.20">
        <route edges="2:0 0:1 1:3 3:7"/>
    </vehicle>
    <vehicle id="515" depart="206.00">
        <route edges="2:0 0:1 1:3 3:7"/>
    </vehicle>
    <vehicle id="517" depart="206.80">
        <route edges="6:5 5:1 1:0 0:2"/>
    </vehicle>
    <vehicle id="519" depart="207.60">
        <route edges="5:1 1:0"/>
    </vehicle>
    <vehicle id="521" depart="208.40">
        <route edges="0:1"/>
    </vehicle>
    <vehicle id="522" depart="208.80">
        <route edges="7:3 3:1 1:0 0:2"/>
    </vehicle>
    <vehicle id="524" depart="209.60">
        <route edges="3:1 1:5"/>
    </vehicle>
    <vehicle id="528" depart="211.20">
        <route edges="6:5 5:1 1:3"/>
    </vehicle>
    <vehicle id="529" depart="211.60">
        <route edges="2:0 0:1 1:3 3:7"/>
    </vehicle>
    <vehicle id="530" depart="212.00">
        <route edges="1:3 3:7"/>
    </vehicle>
    <vehicle id="531" depart="212.40">
        <route edges="1:0 0:2"/>
    </vehicle>
    <vehicle id="533" depart="213.20">
        <route edges="7:3 3:1 1:5 5:6"/>
    </vehicle>
    <vehicle id="537" depart="214.80">
        <route edges="7:3 3:1 1:0 0:2"/>
    </vehicle>
    <vehicle id="541" depart="216.40">
        <route edges="3:1 1:0 0:2"/>
    </vehicle>
    <vehicle id="543" depart="217.20">
        <route edges="1:3 3:7"/>
    </vehicle>
    <vehicle id="544" depart="217.60">
        <route edges="2:0 0:1 1:3 3:7"/>
    </vehicle>
    <vehicle id="545" depart="218.00">
        <route edges="7:3 3:1 1:0 0:2"/>
    </vehicle>
    <vehicle id="546" depart="218.40">
        <route edges="1:0"/>
    </vehicle>
    <vehicle id="548" depart="219.20">
        <route edges="7:3 3:1 1:0"/>
    </vehicle>
    <vehicle id="552" depart="220.80">
        <route edges="5:1 1:0"/>
    </vehicle>
    <vehicle id="556" depart="222.40">
        <route edges="0:1"/>
    </vehicle>
    <vehicle id="558" depart="223.20">
        <route edges="5:1 1:0"/>
    </vehicle>
    <vehicle id="559" depart="223.60">
        <route edges="2:0 0:1 1:3"/>
    </vehicle>
    <vehicle id="560" depart="224.00">
        <route edges="6:5 5:1 1:0"/>
    </vehicle>
    <vehicle id="561" depart="224.40">
        <route edges="6:5 5:1 1:3 3:7"/>
    </vehicle>
    <vehicle id="566" depart="226.40">
        <route edges="1:3 3:7"/>
    </vehicle>
    <vehicle id="567" depart="226.80">
        <route edges="2:0 0:1 1:3"/>
    </vehicle>
    <vehicle id="569" depart="227.60">
        <route edges="1:0 0:2"/>
    </vehicle>
    <vehicle id="570" depart="228.00">
        <route edges="3:1"/>
    </vehicle>
    <vehicle id="571" depart="228.40">
        <route edges="2:0 0:1 1:3"/>
    </vehicle>
    <vehicle id="572" depart="228.80">
        <route edges="1:0 0:2"/>
    </vehicle>
    <vehicle id="574" depart="229.60">
        <route edges="7:3 3:1"/>
    </vehicle>
    <vehicle id="577" depart="230.80">
        <route edges="2:0 0:1 1:3 3:7"/>
    </vehicle>
    <vehicle id="578" depart="231.20">
        <route edges="7:3 3:1 1:5 5:6"/>
    </vehicle>
    <vehicle id="580" depart="232.00">
        <route edges="6:5 5:1 1:0 0:2"/>
    </vehicle>
    <vehicle id="582" depart="232.80">
        <route edges="3:1 1:0 0:2"/>
    </vehicle>
    <vehicle id="583" depart="233.20">
        <route edges="2:0 0:1 1:3 3:7"/>
    </vehicle>
    <vehicle id="587" depart="234.80">
        <route edges="6:5 5:1 1:3"/>
    </vehicle>
    <vehicle id="589" depart="235.60">
        <route edges="3:1 1:0 0:2"/>
    </vehicle>
    <vehicle id="593" depart="237.20">
        <route edges="2:0 0:1 1:3 3:7"/>
    </vehicle>
    <vehicle id="595" depart="238.00">
        <route edges="1:0 0:2"/>
    </vehicle>
    <vehicle id="597" depart="238.80">
        <route edges="2:0 0:1"/>
    </vehicle>
    <vehicle id="598" depart="239.20">
        <route edges="5:1"/>
    </vehicle>
    <vehicle id="602" depart="240.80">
        <route edges="1:3 3:7"/>
    </vehicle>
    <vehicle id="603" depart="241.20">
        <route edges="1:3 3:7"/>
    </vehicle>
    <vehicle id="605" depart="242.00">
        <route edges="7:3 3:1 1:0 0:2"/>
    </vehicle>
    <vehicle id="606" depart="242.40">
        <route edges="1:0"/>
    </vehicle>
    <vehicle id="607" depart="242.80">
        <route edges="6:5 5:1 1:3"/>
    </vehicle>
    <vehicle id="608" depart="243.20">
        <route edges="2:0 0:1 1:3 3:7"/>
    </vehicle>
    <vehicle id="609" depart="243.60">
        <route edges="2:0 0:1 1:3 3:7"/>
    </vehicle>
    <vehicle id="614" depart="245.60">
        <route edges="2:0 0:1 1:3 3:7"/>
    </vehicle>
    <vehicle id="615" depart="246.00">
        <route edges="2:0 0:1 1:5 5:6"/>
    </vehicle>
    <vehicle id="617" depart="246.80">
        <route edges="7:3 3:1 1:5"/>
    </vehicle>
    <vehicle id="619" depart="247.60">
        <route edges="7:3 3:1"/>
    </vehicle>
    <vehicle id="625" depart="250.00">
        <route edges="7:3 3:1"/>
    </vehicle>
    <vehicle id="628" depart="251.20">
        <route edges="2:0 0:1 1:3"/>
    </vehicle>
    <vehicle id="630" depart="252.00">
        <route edges="1:3 3:7"/>
    </vehicle>
    <vehicle id="632" depart="252.80">
        <route edges="6:5 5:1 1:3"/>
    </vehicle>
    <vehicle id="641" depart="256.40">
        <route edges="0:1 1:5 5:6"/>
    </vehicle>
    <vehicle id="642" depart="256.80">
        <route edges="1:0"/>
    </vehicle>
    <vehicle id="646" depart="258.40">
        <route edges="1:0"/>
    </vehicle>
    <vehicle id="648" depart="259.20">
        <route edges="2:0 0:1 1:3 3:7"/>
    </vehicle>
    <vehicle id="650" depart="260.00">
        <route edges="7:3 3:1"/>
    </vehicle>
    <vehicle id="651" depart="260.40">
        <route edges="7:3 3:1 1:5"/>
    </vehicle>
    <vehicle id="652" depart="260.80">
        <route edges="7:3 3:1 1:0"/>
    </vehicle>
    <vehicle id="655" depart="262.00">
        <route edges="3:1 1:0 0:2"/>
    </vehicle>
    <vehicle id="656" depart="262.40">
        <route edges="0:1"/>
    </vehicle>
    <vehicle id="657" depart="262.80">
        <route edges="7:3 3:1 1:0"/>
    </vehicle>
    <vehicle id="658" depart="263.20">
        <route edges="1:3 3:7"/>
    </vehicle>
    <vehicle id="660" depart="264.00">
        <route edges="2:0 0:1"/>
    </vehicle>
    <vehicle id="661" depart="264.40">
        <route edges="2:0 0:1 1:3"/>
    </vehicle>
    <vehicle id="662" depart="264.80">
        <route edges="1:0"/>
    </vehicle>
    <vehicle id="667" depart="266.80">
        <route edges="6:5 5:1 1:3 3:7"/>
    </vehicle>
    <vehicle id="668" depart="267.20">
        <route edges="6:5 5:1 1:3 3:7"/>
    </vehicle>
    <vehicle id="671" depart="268.40">
        <route edges="2:0 0:1 1:3 3:7"/>
    </vehicle>
    <vehicle id="679" depart="271.60">
        <route edges="2:0 0:1 1:5"/>
    </vehicle>
    <vehicle id="680" depart="272.00">
        <route edges="2:0 0:1"/>
    </vehicle>