<?xml version="1.0" encoding="UTF-8"?>

<!-- generated on Thu Feb 13 12:37:33 2014 by SUMO duarouter Version 0.18.0
<?xml version="1.0" encoding="UTF-8"?>

<configuration xmlns:xsi="http://www.w3.org/2001/XMLSchema-instance" xsi:noNamespaceSchemaLocation="http://sumo.sf.net/xsd/duarouterConfiguration.xsd">

    <input>
        <net-file value="simpleT.net.xml"/>
        <trip-files value="experimentos/simpleT.p0.1.3.trips.xml"/>
    </input>

    <output>
        <output-file value="experimentos/simpleT.p0.1.3.rou.xml"/>
    </output>

    <processing>
        <ignore-errors value="true"/>
    </processing>

    <random_number>
        <random value="true"/>
    </random_number>

</configuration>
-->

<routes xmlns:xsi="http://www.w3.org/2001/XMLSchema-instance" xsi:noNamespaceSchemaLocation="http://sumo.sf.net/xsd/routes_file.xsd">
    <vehicle id="1" depart="0.10">
        <route edges="5:1 1:3 3:7"/>
    </vehicle>
    <vehicle id="2" depart="0.20">
        <route edges="7:3 3:1 1:5 5:6"/>
    </vehicle>
    <vehicle id="3" depart="0.30">
        <route edges="2:0 0:1 1:3 3:7"/>
    </vehicle>
    <vehicle id="5" depart="0.50">
        <route edges="1:3 3:7"/>
    </vehicle>
    <vehicle id="6" depart="0.60">
        <route edges="5:1 1:3"/>
    </vehicle>
    <vehicle id="7" depart="0.70">
        <route edges="2:0 0:1 1:3 3:7"/>
    </vehicle>
    <vehicle id="10" depart="1.00">
        <route edges="1:3 3:7"/>
    </vehicle>
    <vehicle id="11" depart="1.10">
        <route edges="2:0 0:1"/>
    </vehicle>
    <vehicle id="12" depart="1.20">
        <route edges="0:1 1:5 5:6"/>
    </vehicle>
    <vehicle id="14" depart="1.40">
        <route edges="2:0 0:1 1:5 5:6"/>
    </vehicle>
    <vehicle id="15" depart="1.50">
        <route edges="3:1 1:0"/>
    </vehicle>
    <vehicle id="18" depart="1.80">
        <route edges="6:5 5:1 1:0 0:2"/>
    </vehicle>
    <vehicle id="23" depart="2.30">
        <route edges="2:0 0:1"/>
    </vehicle>
    <vehicle id="24" depart="2.40">
        <route edges="2:0 0:1 1:3 3:7"/>
    </vehicle>
    <vehicle id="25" depart="2.50">
        <route edges="0:1 1:5"/>
    </vehicle>
    <vehicle id="27" depart="2.70">
        <route edges="7:3 3:1 1:0"/>
    </vehicle>
    <vehicle id="29" depart="2.90">
        <route edges="5:1 1:0"/>
    </vehicle>
    <vehicle id="30" depart="3.00">
        <route edges="0:1 1:3"/>
    </vehicle>
    <vehicle id="32" depart="3.20">
        <route edges="2:0 0:1 1:3"/>
    </vehicle>
    <vehicle id="34" depart="3.40">
        <route edges="6:5 5:1 1:3 3:7"/>
    </vehicle>
    <vehicle id="40" depart="4.00">
        <route edges="3:1 1:5 5:6"/>
    </vehicle>
    <vehicle id="42" depart="4.20">
        <route edges="5:1"/>
    </vehicle>
    <vehicle id="43" depart="4.30">
        <route edges="3:1 1:0 0:2"/>
    </vehicle>
    <vehicle id="44" depart="4.40">
        <route edges="7:3 3:1 1:0"/>
    </vehicle>
    <vehicle id="45" depart="4.50">
        <route edges="1:3"/>
    </vehicle>
    <vehicle id="46" depart="4.60">
        <route edges="7:3 3:1 1:0 0:2"/>
    </vehicle>
    <vehicle id="49" depart="4.90">
        <route edges="1:3"/>
    </vehicle>
    <vehicle id="51" depart="5.10">
        <route edges="6:5 5:1 1:0"/>
    </vehicle>
    <vehicle id="52" depart="5.20">
        <route edges="6:5 5:1 1:3"/>
    </vehicle>
    <vehicle id="54" depart="5.40">
        <route edges="7:3 3:1 1:0 0:2"/>
    </vehicle>
    <vehicle id="55" depart="5.50">
        <route edges="0:1"/>
    </vehicle>
    <vehicle id="56" depart="5.60">
        <route edges="2:0 0:1 1:3 3:7"/>
    </vehicle>
    <vehicle id="58" depart="5.80">
        <route edges="0:1 1:3 3:7"/>
    </vehicle>
    <vehicle id="62" depart="6.20">
        <route edges="7:3 3:1"/>
    </vehicle>
    <vehicle id="63" depart="6.30">
        <route edges="1:0 0:2"/>
    </vehicle>
    <vehicle id="64" depart="6.40">
        <route edges="3:1 1:0 0:2"/>
    </vehicle>
    <vehicle id="68" depart="6.80">
        <route edges="3:1"/>
    </vehicle>
    <vehicle id="69" depart="6.90">
        <route edges="7:3 3:1 1:0"/>
    </vehicle>
    <vehicle id="70" depart="7.00">
        <route edges="3:1 1:0"/>
    </vehicle>
    <vehicle id="71" depart="7.10">
        <route edges="7:3 3:1 1:0 0:2"/>
    </vehicle>
    <vehicle id="73" depart="7.30">
        <route edges="2:0 0:1 1:3"/>
    </vehicle>
    <vehicle id="77" depart="7.70">
        <route edges="2:0 0:1 1:3"/>
    </vehicle>
    <vehicle id="79" depart="7.90">
        <route edges="3:1 1:0"/>
    </vehicle>
    <vehicle id="81" depart="8.10">
        <route edges="2:0 0:1 1:3 3:7"/>
    </vehicle>
    <vehicle id="83" depart="8.30">
        <route edges="0:1 1:3"/>
    </vehicle>
    <vehicle id="84" depart="8.40">
        <route edges="7:3 3:1 1:0 0:2"/>
    </vehicle>
    <vehicle id="86" depart="8.60">
        <route edges="7:3 3:1 1:5"/>
    </vehicle>
    <vehicle id="87" depart="8.70">
        <route edges="2:0 0:1"/>
    </vehicle>
    <vehicle id="89" depart="8.90">
        <route edges="1:3"/>
    </vehicle>
    <vehicle id="91" depart="9.10">
        <route edges="6:5 5:1 1:0 0:2"/>
    </vehicle>
    <vehicle id="93" depart="9.30">
        <route edges="7:3 3:1 1:0"/>
    </vehicle>
    <vehicle id="95" depart="9.50">
        <route edges="7:3 3:1 1:0 0:2"/>
    </vehicle>
    <vehicle id="96" depart="9.60">
        <route edges="2:0 0:1 1:3 3:7"/>
    </vehicle>
    <vehicle id="98" depart="9.80">
        <route edges="3:1 1:0 0:2"/>
    </vehicle>
    <vehicle id="102" depart="10.20">
        <route edges="5:1 1:0 0:2"/>
    </vehicle>
    <vehicle id="103" depart="10.30">
        <route edges="3:1 1:0 0:2"/>
    </vehicle>
    <vehicle id="104" depart="10.40">
        <route edges="2:0 0:1 1:3"/>
    </vehicle>
    <vehicle id="106" depart="10.60">
        <route edges="2:0 0:1"/>
    </vehicle>
    <vehicle id="107" depart="10.70">
        <route edges="2:0 0:1 1:3 3:7"/>
    </vehicle>
    <vehicle id="108" depart="10.80">
        <route edges="0:1 1:5 5:6"/>
    </vehicle>
    <vehicle id="111" depart="11.10">
        <route edges="7:3 3:1 1:0 0:2"/>
    </vehicle>
    <vehicle id="116" depart="11.60">
        <route edges="1:3 3:7"/>
    </vehicle>
    <vehicle id="125" depart="12.50">
        <route edges="7:3 3:1"/>
    </vehicle>
    <vehicle id="126" depart="12.60">
        <route edges="3:1 1:0 0:2"/>
    </vehicle>
    <vehicle id="127" depart="12.70">
        <route edges="2:0 0:1 1:3 3:7"/>
    </vehicle>
    <vehicle id="131" depart="13.10">
        <route edges="7:3 3:1 1:0"/>
    </vehicle>
    <vehicle id="132" depart="13.20">
        <route edges="2:0 0:1 1:3 3:7"/>
    </vehicle>
    <vehicle id="138" depart="13.80">
        <route edges="7:3 3:1 1:0 0:2"/>
    </vehicle>
    <vehicle id="141" depart="14.10">
        <route edges="7:3 3:1 1:0 0:2"/>
    </vehicle>
    <vehicle id="144" depart="14.40">
        <route edges="3:1 1:5"/>
    </vehicle>
    <vehicle id="147" depart="14.70">
        <route edges="2:0 0:1"/>
    </vehicle>
    <vehicle id="152" depart="15.20">
        <route edges="7:3 3:1 1:0"/>
    </vehicle>
    <vehicle id="156" depart="15.60">
        <route edges="3:1 1:0 0:2"/>
    </vehicle>
    <vehicle id="157" depart="15.70">
        <route edges="2:0 0:1 1:3 3:7"/>
    </vehicle>
    <vehicle id="158" depart="15.80">
        <route edges="2:0 0:1 1:5 5:6"/>
    </vehicle>
    <vehicle id="159" depart="15.90">
        <route edges="7:3 3:1 1:0 0:2"/>
    </vehicle>
    <vehicle id="161" depart="16.10">
        <route edges="2:0 0:1 1:3"/>
    </vehicle>
    <vehicle id="164" depart="16.40">
        <route edges="2:0 0:1 1:5 5:6"/>
    </vehicle>
    <vehicle id="167" depart="16.70">
        <route edges="7:3 3:1 1:5"/>
    </vehicle>
    <vehicle id="168" depart="16.80">
        <route edges="2:0 0:1 1:3"/>
    </vehicle>
    <vehicle id="170" depart="17.00">
        <route edges="2:0 0:1 1:3 3:7"/>
    </vehicle>
    <vehicle id="172" depart="17.20">
        <route edges="7:3 3:1"/>
    </vehicle>
    <vehicle id="173" depart="17.30">
        <route edges="2:0 0:1 1:5 5:6"/>
    </vehicle>
    <vehicle id="175" depart="17.50">
        <route edges="1:3 3:7"/>
    </vehicle>
    <vehicle id="178" depart="17.80">
        <route edges="5:1 1:3 3:7"/>
    </vehicle>
    <vehicle id="182" depart="18.20">
        <route edges="2:0 0:1 1:5 5:6"/>
    </vehicle>
    <vehicle id="184" depart="18.40">
        <route edges="2:0 0:1 1:3"/>
    </vehicle>
    <vehicle id="185" depart="18.50">
        <route edges="0:1 1:5"/>
    </vehicle>
    <vehicle id="186" depart="18.60">
        <route edges="1:0"/>
    </vehicle>
    <vehicle id="187" depart="18.70">
        <route edges="1:3 3:7"/>
    </vehicle>
    <vehicle id="190" depart="19.00">
        <route edges="2:0 0:1 1:5 5:6"/>
    </vehicle>
    <vehicle id="192" depart="19.20">
        <route edges="2:0 0:1 1:3"/>
    </vehicle>
    <vehicle id="195" depart="19.50">
        <route edges="7:3 3:1 1:0"/>
    </vehicle>
    <vehicle id="198" depart="19.80">
        <route edges="7:3 3:1 1:5 5:6"/>
    </vehicle>
    <vehicle id="200" depart="20.00">
        <route edges="2:0 0:1"/>
    </vehicle>
    <vehicle id="202" depart="20.20">
        <route edges="7:3 3:1 1:0 0:2"/>
    </vehicle>
    <vehicle id="205" depart="20.50">
        <route edges="5:1 1:3"/>
    </vehicle>
    <vehicle id="207" depart="20.70">
        <route edges="3:1 1:0 0:2"/>
    </vehicle>
    <vehicle id="209" depart="20.90">
        <route edges="6:5 5:1 1:0"/>
    </vehicle>
    <vehicle id="210" depart="21.00">
        <route edges="7:3 3:1 1:0 0:2"/>
    </vehicle>
    <vehicle id="213" depart="21.30">
        <route edges="5:1"/>
    </vehicle>
    <vehicle id="215" depart="21.50">
        <route edges="3:1 1:0 0:2"/>
    </vehicle>
    <vehicle id="217" depart="21.70">
        <route edges="6:5 5:1 1:0"/>
    </vehicle>
    <vehicle id="218" depart="21.80">
        <route edges="3:1 1:5 5:6"/>
    </vehicle>
    <vehicle id="220" depart="22.00">
        <route edges="7:3 3:1 1:0 0:2"/>
    </vehicle>
    <vehicle id="221" depart="22.10">
        <route edges="3:1 1:5"/>
    </vehicle>
    <vehicle id="222" depart="22.20">
        <route edges="1:0 0:2"/>
    </vehicle>
    <vehicle id="223" depart="22.30">
        <route edges="2:0 0:1 1:5 5:6"/>
    </vehicle>
    <vehicle id="224" depart="22.40">
        <route edges="7:3 3:1 1:0"/>
    </vehicle>
    <vehicle id="228" depart="22.80">
        <route edges="1:0"/>
    </vehicle>
    <vehicle id="229" depart="22.90">
        <route edges="7:3 3:1 1:0 0:2"/>
    </vehicle>
    <vehicle id="230" depart="23.00">
        <route edges="7:3 3:1"/>
    </vehicle>
    <vehicle id="231" depart="23.10">
        <route edges="7:3 3:1"/>
    </vehicle>
    <vehicle id="233" depart="23.30">
        <route edges="6:5 5:1 1:3 3:7"/>
    </vehicle>
    <vehicle id="235" depart="23.50">
        <route edges="7:3 3:1 1:0 0:2"/>
    </vehicle>
    <vehicle id="237" depart="23.70">
        <route edges="6:5 5:1 1:0"/>
    </vehicle>
    <vehicle id="239" depart="23.90">
        <route edges="7:3 3:1 1:0"/>
    </vehicle>
    <vehicle id="240" depart="24.00">
        <route edges="6:5 5:1 1:3 3:7"/>
    </vehicle>
    <vehicle id="244" depart="24.40">
        <route edges="2:0 0:1 1:3 3:7"/>
    </vehicle>
    <vehicle id="245" depart="24.50">
        <route edges="1:3 3:7"/>
    </vehicle>
    <vehicle id="246" depart="24.60">
        <route edges="0:1 1:3 3:7"/>
    </vehicle>
    <vehicle id="249" depart="24.90">
        <route edges="3:1 1:5 5:6"/>
    </vehicle>
    <vehicle id="250" depart="25.00">
        <route edges="7:3 3:1 1:5 5:6"/>
    </vehicle>
    <vehicle id="251" depart="25.10">
        <route edges="2:0 0:1 1:5 5:6"/>
    </vehicle>
    <vehicle id="253" depart="25.30">
        <route edges="5:1 1:3"/>
    </vehicle>
    <vehicle id="257" depart="25.70">
        <route edges="0:1 1:3 3:7"/>
    </vehicle>
    <vehicle id="258" depart="25.80">
        <route edges="1:3 3:7"/>
    </vehicle>
    <vehicle id="259" depart="25.90">
        <route edges="7:3 3:1 1:0"/>
    </vehicle>
    <vehicle id="262" depart="26.20">
        <route edges="1:3 3:7"/>
    </vehicle>
    <vehicle id="264" depart="26.40">
        <route edges="2:0 0:1 1:3 3:7"/>
    </vehicle>
    <vehicle id="266" depart="26.60">
        <route edges="2:0 0:1 1:3 3:7"/>
    </vehicle>
    <vehicle id="267" depart="26.70">
        <route edges="5:1 1:0 0:2"/>
    </vehicle>
    <vehicle id="268" depart="26.80">
        <route edges="6:5 5:1 1:3 3:7"/>
    </vehicle>
    <vehicle id="269" depart="26.90">
        <route edges="1:3 3:7"/>
    </vehicle>
    <vehicle id="270" depart="27.00">
        <route edges="6:5 5:1 1:3"/>
    </vehicle>
    <vehicle id="273" depart="27.30">
        <route edges="1:0"/>
    </vehicle>
    <vehicle id="276" depart="27.60">
        <route edges="2:0 0:1 1:3 3:7"/>
    </vehicle>
    <vehicle id="277" depart="27.70">
        <route edges="5:1 1:0 0:2"/>
    </vehicle>
    <vehicle id="279" depart="27.90">
        <route edges="0:1 1:3"/>
    </vehicle>
    <vehicle id="280" depart="28.00">
        <route edges="3:1 1:0 0:2"/>
    </vehicle>
    <vehicle id="283" depart="28.30">
        <route edges="2:0 0:1 1:3 3:7"/>
    </vehicle>
    <vehicle id="285" depart="28.50">
        <route edges="7:3 3:1"/>
    </vehicle>
    <vehicle id="287" depart="28.70">
        <route edges="3:1 1:5 5:6"/>
    </vehicle>
    <vehicle id="289" depart="28.90">
        <route edges="1:3 3:7"/>
    </vehicle>
    <vehicle id="292" depart="29.20">
        <route edges="1:0"/>
    </vehicle>
    <vehicle id="293" depart="29.30">
        <route edges="1:3 3:7"/>
    </vehicle>
    <vehicle id="294" depart="29.40">
        <route edges="1:5 5:6"/>
    </vehicle>
    <vehicle id="295" depart="29.50">
        <route edges="5:1 1:3 3:7"/>
    </vehicle>
    <vehicle id="297" depart="29.70">
        <route edges="1:3 3:7"/>
    </vehicle>
    <vehicle id="299" depart="29.90">
        <route edges="5:1 1:3"/>
    </vehicle>
    <vehicle id="301" depart="30.10">
        <route edges="2:0 0:1"/>
    </vehicle>
    <vehicle id="302" depart="30.20">
        <route edges="7:3 3:1 1:0 0:2"/>
    </vehicle>
    <vehicle id="304" depart="30.40">
        <route edges="1:0"/>
    </vehicle>
    <vehicle id="306" depart="30.60">
        <route edges="7:3 3:1 1:0 0:2"/>
    </vehicle>
    <vehicle id="308" depart="30.80">
        <route edges="2:0 0:1 1:3 3:7"/>
    </vehicle>
    <vehicle id="309" depart="30.90">
        <route edges="7:3 3:1 1:5"/>
    </vehicle>
    <vehicle id="311" depart="31.10">
        <route edges="7:3 3:1 1:0"/>
    </vehicle>
    <vehicle id="312" depart="31.20">
        <route edges="7:3 3:1"/>
    </vehicle>
    <vehicle id="313" depart="31.30">
        <route edges="5:1 1:3"/>
    </vehicle>
    <vehicle id="319" depart="31.90">
        <route edges="7:3 3:1 1:5 5:6"/>
    </vehicle>
    <vehicle id="321" depart="32.10">
        <route edges="0:1"/>
    </vehicle>
    <vehicle id="323" depart="32.30">
        <route edges="3:1 1:5 5:6"/>
    </vehicle>
    <vehicle id="326" depart="32.60">
        <route edges="0:1 1:3 3:7"/>
    </vehicle>
    <vehicle id="328" depart="32.80">
        <route edges="7:3 3:1 1:0 0:2"/>
    </vehicle>
    <vehicle id="330" depart="33.00">
        <route edges="3:1 1:5 5:6"/>
    </vehicle>
    <vehicle id="336" depart="33.60">
        <route edges="0:1 1:3"/>
    </vehicle>
    <vehicle id="338" depart="33.80">
        <route edges="3:1"/>
    </vehicle>
    <vehicle id="340" depart="34.00">
        <route edges="2:0 0:1 1:5 5:6"/>
    </vehicle>
    <vehicle id="342" depart="34.20">
        <route edges="2:0 0:1 1:3"/>
    </vehicle>
    <vehicle id="343" depart="34.30">
        <route edges="7:3 3:1 1:5 5:6"/>
    </vehicle>
    <vehicle id="345" depart="34.50">
        <route edges="7:3 3:1 1:0 0:2"/>
    </vehicle>
    <vehicle id="347" depart="34.70">
        <route edges="0:1 1:5 5:6"/>
    </vehicle>
    <vehicle id="350" depart="35.00">
        <route edges="3:1 1:5 5:6"/>
    </vehicle>
    <vehicle id="353" depart="35.30">
        <route edges="7:3 3:1 1:0 0:2"/>
    </vehicle>
    <vehicle id="356" depart="35.60">
        <route edges="0:1 1:3 3:7"/>
    </vehicle>
    <vehicle id="358" depart="35.80">
        <route edges="1:0"/>
    </vehicle>
    <vehicle id="361" depart="36.10">
        <route edges="6:5 5:1 1:3 3:7"/>
    </vehicle>
    <vehicle id="363" depart="36.30">
        <route edges="5:1 1:0"/>
    </vehicle>
    <vehicle id="371" depart="37.10">
        <route edges="7:3 3:1 1:0"/>
    </vehicle>
    <vehicle id="376" depart="37.60">
        <route edges="2:0 0:1"/>
    </vehicle>
    <vehicle id="377" depart="37.70">
        <route edges="3:1 1:0"/>
    </vehicle>
    <vehicle id="381" depart="38.10">
        <route edges="3:1 1:0 0:2"/>
    </vehicle>
    <vehicle id="382" depart="38.20">
        <route edges="2:0 0:1"/>
    </vehicle>
    <vehicle id="383" depart="38.30">
        <route edges="7:3 3:1 1:0"/>
    </vehicle>
    <vehicle id="384" depart="38.40">
        <route edges="2:0 0:1 1:3 3:7"/>
    </vehicle>
    <vehicle id="385" depart="38.50">
        <route edges="7:3 3:1 1:0 0:2"/>
    </vehicle>
    <vehicle id="387" depart="38.70">
        <route edges="3:1"/>
    </vehicle>
    <vehicle id="388" depart="38.80">
        <route edges="1:0"/>
    </vehicle>
    <vehicle id="391" depart="39.10">
        <route edges="1:0"/>
    </vehicle>
    <vehicle id="392" depart="39.20">
        <route edges="5:1 1:0 0:2"/>
    </vehicle>
    <vehicle id="393" depart="39.30">
        <route edges="7:3 3:1 1:0 0:2"/>
    </vehicle>
    <vehicle id="394" depart="39.40">
        <route edges="2:0 0:1"/>
    </vehicle>
    <vehicle id="396" depart="39.60">
        <route edges="2:0 0:1 1:3 3:7"/>
    </vehicle>
    <vehicle id="399" depart="39.90">
        <route edges="1:0"/>
    </vehicle>
    <vehicle id="400" depart="40.00">
        <route edges="3:1 1:0 0:2"/>
    </vehicle>
    <vehicle id="402" depart="40.20">
        <route edges="2:0 0:1 1:5 5:6"/>
    </vehicle>
    <vehicle id="404" depart="40.40">
        <route edges="6:5 5:1 1:3 3:7"/>
    </vehicle>
    <vehicle id="405" depart="40.50">
        <route edges="6:5 5:1 1:3"/>
    </vehicle>
    <vehicle id="406" depart="40.60">
        <route edges="6:5 5:1 1:3"/>
    </vehicle>
    <vehicle id="407" depart="40.70">
        <route edges="2:0 0:1 1:3"/>
    </vehicle>
    <vehicle id="408" depart="40.80">
        <route edges="6:5 5:1 1:3 3:7"/>
    </vehicle>
    <vehicle id="409" depart="40.90">
        <route edges="2:0 0:1 1:5"/>
    </vehicle>
    <vehicle id="410" depart="41.00">
        <route edges="6:5 5:1 1:3 3:7"/>
    </vehicle>
    <vehicle id="411" depart="41.10">
        <route edges="1:3 3:7"/>
    </vehicle>
    <vehicle id="413" depart="41.30">
        <route edges="6:5 5:1 1:3 3:7"/>
    </vehicle>
    <vehicle id="414" depart="41.40">
        <route edges="2:0 0:1"/>
    </vehicle>
    <vehicle id="417" depart="41.70">
        <route edges="7:3 3:1 1:5 5:6"/>
    </vehicle>
    <vehicle id="420" depart="42.00">
        <route edges="3:1"/>
    </vehicle>
    <vehicle id="424" depart="42.40">
        <route edges="0:1 1:3 3:7"/>
    </vehicle>
    <vehicle id="427" depart="42.70">
        <route edges="6:5 5:1 1:0"/>
    </vehicle>
    <vehicle id="429" depart="42.90">
        <route edges="6:5 5:1 1:0 0:2"/>
    </vehicle>
    <vehicle id="431" depart="43.10">
        <route edges="3:1 1:0 0:2"/>
    </vehicle>
    <vehicle id="432" depart="43.20">
        <route edges="6:5 5:1"/>
    </vehicle>
    <vehicle id="435" depart="43.50">
        <route edges="3:1 1:0"/>
    </vehicle>
    <vehicle id="437" depart="43.70">
        <route edges="7:3 3:1"/>
    </vehicle>
    <vehicle id="438" depart="43.80">
        <route edges="0:1 1:5 5:6"/>
    </vehicle>
    <vehicle id="439" depart="43.90">
        <route edges="6:5 5:1 1:3 3:7"/>
    </vehicle>
    <vehicle id="442" depart="44.20">
        <route edges="0:1"/>
    </vehicle>
    <vehicle id="443" depart="44.30">
        <route edges="2:0 0:1 1:5 5:6"/>
    </vehicle>
    <vehicle id="444" depart="44.40">
        <route edges="7:3 3:1 1:0 0:2"/>
    </vehicle>
    <vehicle id="445" depart="44.50">
        <route edges="0:1"/>
    </vehicle>
    <vehicle id="446" depart="44.60">
        <route edges="5:1 1:0 0:2"/>
    </vehicle>
    <vehicle id="447" depart="44.70">
        <route edges="6:5 5:1 1:0 0:2"/>
    </vehicle>
    <vehicle id="448" depart="44.80">
        <route edges="3:1 1:5 5:6"/>
    </vehicle>
    <vehicle id="450" depart="45.00">
        <route edges="0:1"/>
    </vehicle>
    <vehicle id="451" depart="45.10">
        <route edges="1:0 0:2"/>
    </vehicle>
    <vehicle id="455" depart="45.50">
        <route edges="0:1 1:5"/>
    </vehicle>
    <vehicle id="457" depart="45.70">
        <route edges="2:0 0:1 1:3 3:7"/>
    </vehicle>
    <vehicle id="458" depart="45.80">
        <route edges="2:0 0:1"/>
    </vehicle>
    <vehicle id="461" depart="46.10">
        <route edges="1:3"/>
    </vehicle>
    <vehicle id="462" depart="46.20">
        <route edges="5:1 1:0 0:2"/>
    </vehicle>
    <vehicle id="463" depart="46.30">
        <route edges="2:0 0:1"/>
    </vehicle>
    <vehicle id="464" depart="46.40">
        <route edges="2:0 0:1"/>
    </vehicle>
    <vehicle id="466" depart="46.60">
        <route edges="7:3 3:1 1:5"/>
    </vehicle>
    <vehicle id="469" depart="46.90">
        <route edges="3:1 1:5 5:6"/>
    </vehicle>
    <vehicle id="470" depart="47.00">
        <route edges="7:3 3:1"/>
    </vehicle>
    <vehicle id="471" depart="47.10">
        <route edges="6:5 5:1 1:3 3:7"/>
    </vehicle>
    <vehicle id="472" depart="47.20">
        <route edges="5:1 1:0 0:2"/>
    </vehicle>
    <vehicle id="474" depart="47.40">
        <route edges="0:1 1:3 3:7"/>
    </vehicle>
    <vehicle id="477" depart="47.70">
        <route edges="1:0 0:2"/>
    </vehicle>
    <vehicle id="480" depart="48.00">
        <route edges="7:3 3:1 1:0 0:2"/>
    </vehicle>
    <vehicle id="481" depart="48.10">
        <route edges="2:0 0:1 1:5 5:6"/>
    </vehicle>
    <vehicle id="482" depart="48.20">
        <route edges="2:0 0:1"/>
    </vehicle>
    <vehicle id="489" depart="48.90">
        <route edges="6:5 5:1 1:3"/>
    </vehicle>
    <vehicle id="493" depart="49.30">
        <route edges="7:3 3:1 1:0 0:2"/>
    </vehicle>
    <vehicle id="495" depart="49.50">
        <route edges="0:1 1:5"/>
    </vehicle>
    <vehicle id="501" depart="50.10">
        <route edges="2:0 0:1 1:5 5:6"/>
    </vehicle>
    <vehicle id="502" depart="50.20">
        <route edges="5:1 1:3"/>
    </vehicle>
    <vehicle id="503" depart="50.30">
        <route edges="0:1 1:3 3:7"/>
    </vehicle>
    <vehicle id="506" depart="50.60">
        <route edges="3:1 1:0 0:2"/>
    </vehicle>
    <vehicle id="508" depart="50.80">
        <route edges="7:3 3:1 1:0 0:2"/>
    </vehicle>
    <vehicle id="511" depart="51.10">
        <route edges="1:3 3:7"/>
    </vehicle>
    <vehicle id="513" depart="51.30">
        <route edges="0:1 1:3 3:7"/>
    </vehicle>
    <vehicle id="518" depart="51.80">
        <route edges="5:1 1:3 3:7"/>
    </vehicle>
    <vehicle id="521" depart="52.10">
        <route edges="3:1 1:5 5:6"/>
    </vehicle>
    <vehicle id="522" depart="52.20">
        <route edges="3:1 1:5 5:6"/>
    </vehicle>
    <vehicle id="523" depart="52.30">
        <route edges="5:1 1:3"/>
    </vehicle>
    <vehicle id="527" depart="52.70">
        <route edges="2:0 0:1 1:5 5:6"/>
    </vehicle>
    <vehicle id="529" depart="52.90">
        <route edges="3:1 1:0 0:2"/>
    </vehicle>
    <vehicle id="530" depart="53.00">
        <route edges="2:0 0:1"/>
    </vehicle>
    <vehicle id="532" depart="53.20">
        <route edges="2:0 0:1 1:5 5:6"/>
    </vehicle>
    <vehicle id="533" depart="53.30">
        <route edges="7:3 3:1"/>
    </vehicle>
    <vehicle id="535" depart="53.50">
        <route edges="2:0 0:1 1:3 3:7"/>
    </vehicle>
    <vehicle id="536" depart="53.60">
        <route edges="0:1 1:3 3:7"/>
    </vehicle>
    <vehicle id="538" depart="53.80">
        <route edges="7:3 3:1 1:0"/>
    </vehicle>
    <vehicle id="539" depart="53.90">
        <route edges="6:5 5:1 1:3 3:7"/>
    </vehicle>
    <vehicle id="540" depart="54.00">
        <route edges="7:3 3:1 1:0 0:2"/>
    </vehicle>
    <vehicle id="541" depart="54.10">
        <route edges="1:0 0:2"/>
    </vehicle>
    <vehicle id="542" depart="54.20">
        <route edges="3:1"/>
    </vehicle>
    <vehicle id="543" depart="54.30">
        <route edges="2:0 0:1 1:3 3:7"/>
    </vehicle>
    <vehicle id="544" depart="54.40">
        <route edges="5:1 1:3"/>
    </vehicle>
    <vehicle id="546" depart="54.60">
        <route edges="5:1 1:0"/>
    </vehicle>
    <vehicle id="547" depart="54.70">
        <route edges="2:0 0:1 1:3 3:7"/>
    </vehicle>
    <vehicle id="548" depart="54.80">
        <route edges="2:0 0:1 1:3 3:7"/>
    </vehicle>
    <vehicle id="550" depart="55.00">
        <route edges="7:3 3:1 1:5"/>
    </vehicle>
    <vehicle id="552" depart="55.20">
        <route edges="2:0 0:1"/>
    </vehicle>
    <vehicle id="553" depart="55.30">
        <route edges="6:5 5:1 1:0 0:2"/>
    </vehicle>
    <vehicle id="559" depart="55.90">
        <route edges="2:0 0:1 1:5"/>
    </vehicle>
    <vehicle id="561" depart="56.10">
        <route edges="6:5 5:1 1:0 0:2"/>
    </vehicle>
    <vehicle id="563" depart="56.30">
        <route edges="3:1 1:0 0:2"/>
    </vehicle>
    <vehicle id="564" depart="56.40">
        <route edges="6:5 5:1 1:3 3:7"/>
    </vehicle>
    <vehicle id="566" depart="56.60">
        <route edges="1:3 3:7"/>
    </vehicle>
    <vehicle id="567" depart="56.70">
        <route edges="1:3"/>
    </vehicle>
    <vehicle id="568" depart="56.80">
        <route edges="3:1 1:0 0:2"/>
    </vehicle>
    <vehicle id="569" depart="56.90">
        <route edges="0:1"/>
    </vehicle>
    <vehicle id="570" depart="57.00">
        <route edges="6:5 5:1 1:3 3:7"/>
    </vehicle>
    <vehicle id="571" depart="57.10">
        <route edges="5:1 1:3 3:7"/>
    </vehicle>
    <vehicle id="573" depart="57.30">
        <route edges="2:0 0:1 1:3 3:7"/>
    </vehicle>
    <vehicle id="575" depart="57.50">
        <route edges="2:0 0:1 1:5 5:6"/>
    </vehicle>
    <vehicle id="576" depart="57.60">
        <route edges="2:0 0:1 1:3 3:7"/>
    </vehicle>
    <vehicle id="578" depart="57.80">
        <route edges="0:1 1:3 3:7"/>
    </vehicle>
    <vehicle id="579" depart="57.90">
        <route edges="2:0 0:1 1:3 3:7"/>
    </vehicle>
    <vehicle id="580" depart="58.00">
        <route edges="7:3 3:1 1:0 0:2"/>
    </vehicle>
    <vehicle id="583" depart="58.30">
        <route edges="2:0 0:1"/>
    </vehicle>
    <vehicle id="585" depart="58.50">
        <route edges="0:1 1:3"/>
    </vehicle>
    <vehicle id="586" depart="58.60">
        <route edges="1:3 3:7"/>
    </vehicle>
    <vehicle id="587" depart="58.70">
        <route edges="2:0 0:1"/>
    </vehicle>
    <vehicle id="588" depart="58.80">
        <route edges="2:0 0:1"/>
    </vehicle>
    <vehicle id="589" depart="58.90">
        <route edges="6:5 5:1 1:0 0:2"/>
    </vehicle>
    <vehicle id="592" depart="59.20">
        <route edges="7:3 3:1 1:5 5:6"/>
    </vehicle>
    <vehicle id="593" depart="59.30">
        <route edges="6:5 5:1 1:0 0:2"/>
    </vehicle>
    <vehicle id="595" depart="59.50">
        <route edges="6:5 5:1 1:3"/>
    </vehicle>
    <vehicle id="596" depart="59.60">
        <route edges="0:1 1:5"/>
    </vehicle>
    <vehicle id="597" depart="59.70">
        <route edges="7:3 3:1 1:5"/>
    </vehicle>
    <vehicle id="600" depart="60.00">
        <route edges="7:3 3:1"/>
    </vehicle>
    <vehicle id="602" depart="60.20">
        <route edges="1:0"/>
    </vehicle>
    <vehicle id="605" depart="60.50">
        <route edges="6:5 5:1 1:0 0:2"/>
    </vehicle>
    <vehicle id="608" depart="60.80">
        <route edges="5:1 1:0"/>
    </vehicle>
    <vehicle id="612" depart="61.20">
        <route edges="0:1 1:3 3:7"/>
    </vehicle>
    <vehicle id="616" depart="61.60">
        <route edges="2:0 0:1 1:3 3:7"/>
    </vehicle>
    <vehicle id="617" depart="61.70">
        <route edges="7:3 3:1"/>
    </vehicle>
    <vehicle id="620" depart="62.00">
        <route edges="7:3 3:1"/>
    </vehicle>
    <vehicle id="621" depart="62.10">
        <route edges="7:3 3:1 1:0 0:2"/>
    </vehicle>
    <vehicle id="624" depart="62.40">
        <route edges="2:0 0:1 1:3 3:7"/>
    </vehicle>
    <vehicle id="625" depart="62.50">
        <route edges="7:3 3:1"/>
    </vehicle>
    <vehicle id="631" depart="63.10">
        <route edges="6:5 5:1 1:0 0:2"/>
    </vehicle>
    <vehicle id="634" depart="63.40">
        <route edges="1:3 3:7"/>
    </vehicle>
    <vehicle id="635" depart="63.50">
        <route edges="7:3 3:1 1:0 0:2"/>
    </vehicle>
    <vehicle id="639" depart="63.90">
        <route edges="6:5 5:1 1:3 3:7"/>
    </vehicle>
    <vehicle id="640" depart="64.00">
        <route edges="1:3 3:7"/>
    </vehicle>
    <vehicle id="641" depart="64.10">
        <route edges="0:1"/>
    </vehicle>
    <vehicle id="642" depart="64.20">
        <route edges="0:1 1:3 3:7"/>
    </vehicle>
    <vehicle id="644" depart="64.40">
        <route edges="5:1 1:3"/>
    </vehicle>
    <vehicle id="645" depart="64.50">
        <route edges="7:3 3:1 1:5 5:6"/>
    </vehicle>
    <vehicle id="654" depart="65.40">
        <route edges="7:3 3:1 1:5"/>
    </vehicle>
    <vehicle id="655" depart="65.50">
        <route edges="0:1 1:3"/>
    </vehicle>
    <vehicle id="657" depart="65.70">
        <route edges="3:1 1:0 0:2"/>
    </vehicle>