<?xml version="1.0" encoding="UTF-8"?>

<!-- generated on Thu Feb 13 12:39:28 2014 by SUMO duarouter Version 0.18.0
<?xml version="1.0" encoding="UTF-8"?>

<configuration xmlns:xsi="http://www.w3.org/2001/XMLSchema-instance" xsi:noNamespaceSchemaLocation="http://sumo.sf.net/xsd/duarouterConfiguration.xsd">

    <input>
        <net-file value="simpleT.net.xml"/>
        <trip-files value="experimentos/simpleT.p0.7.2.trips.xml"/>
    </input>

    <output>
        <output-file value="experimentos/simpleT.p0.7.2.rou.xml"/>
    </output>

    <processing>
        <ignore-errors value="true"/>
    </processing>

    <random_number>
        <random value="true"/>
    </random_number>

</configuration>
-->

<routes xmlns:xsi="http://www.w3.org/2001/XMLSchema-instance" xsi:noNamespaceSchemaLocation="http://sumo.sf.net/xsd/routes_file.xsd">
    <vehicle id="0" depart="0.00">
        <route edges="2:0 0:1 1:3"/>
    </vehicle>
    <vehicle id="3" depart="2.10">
        <route edges="0:1 1:3 3:7"/>
    </vehicle>
    <vehicle id="4" depart="2.80">
        <route edges="1:3"/>
    </vehicle>
    <vehicle id="5" depart="3.50">
        <route edges="7:3 3:1 1:5 5:6"/>
    </vehicle>
    <vehicle id="6" depart="4.20">
        <route edges="2:0 0:1 1:3"/>
    </vehicle>
    <vehicle id="7" depart="4.90">
        <route edges="2:0 0:1 1:3 3:7"/>
    </vehicle>
    <vehicle id="9" depart="6.30">
        <route edges="3:1 1:0"/>
    </vehicle>
    <vehicle id="12" depart="8.40">
        <route edges="1:3 3:7"/>
    </vehicle>
    <vehicle id="14" depart="9.80">
        <route edges="2:0 0:1 1:3"/>
    </vehicle>
    <vehicle id="15" depart="10.50">
        <route edges="7:3 3:1"/>
    </vehicle>
    <vehicle id="17" depart="11.90">
        <route edges="5:1"/>
    </vehicle>
    <vehicle id="18" depart="12.60">
        <route edges="3:1 1:0 0:2"/>
    </vehicle>
    <vehicle id="20" depart="14.00">
        <route edges="6:5 5:1 1:3 3:7"/>
    </vehicle>
    <vehicle id="23" depart="16.10">
        <route edges="6:5 5:1 1:0 0:2"/>
    </vehicle>
    <vehicle id="26" depart="18.20">
        <route edges="7:3 3:1"/>
    </vehicle>
    <vehicle id="27" depart="18.90">
        <route edges="6:5 5:1 1:0 0:2"/>
    </vehicle>
    <vehicle id="29" depart="20.30">
        <route edges="7:3 3:1 1:5 5:6"/>
    </vehicle>
    <vehicle id="31" depart="21.70">
        <route edges="1:0"/>
    </vehicle>
    <vehicle id="33" depart="23.10">
        <route edges="0:1 1:3 3:7"/>
    </vehicle>
    <vehicle id="34" depart="23.80">
        <route edges="1:3"/>
    </vehicle>
    <vehicle id="35" depart="24.50">
        <route edges="2:0 0:1 1:5 5:6"/>
    </vehicle>
    <vehicle id="36" depart="25.20">
        <route edges="7:3 3:1 1:0 0:2"/>
    </vehicle>
    <vehicle id="37" depart="25.90">
        <route edges="6:5 5:1"/>
    </vehicle>
    <vehicle id="38" depart="26.60">
        <route edges="2:0 0:1 1:5"/>
    </vehicle>
    <vehicle id="40" depart="28.00">
        <route edges="7:3 3:1 1:0 0:2"/>
    </vehicle>
    <vehicle id="42" depart="29.40">
        <route edges="3:1 1:5 5:6"/>
    </vehicle>
    <vehicle id="45" depart="31.50">
        <route edges="0:1"/>
    </vehicle>
    <vehicle id="46" depart="32.20">
        <route edges="3:1 1:5"/>
    </vehicle>
    <vehicle id="55" depart="38.50">
        <route edges="3:1 1:0 0:2"/>
    </vehicle>
    <vehicle id="56" depart="39.20">
        <route edges="7:3 3:1 1:0 0:2"/>
    </vehicle>
    <vehicle id="62" depart="43.40">
        <route edges="1:0"/>
    </vehicle>
    <vehicle id="65" depart="45.50">
        <route edges="3:1 1:5"/>
    </vehicle>
    <vehicle id="68" depart="47.60">
        <route edges="3:1 1:0 0:2"/>
    </vehicle>
    <vehicle id="71" depart="49.70">
        <route edges="3:1 1:5 5:6"/>
    </vehicle>
    <vehicle id="72" depart="50.40">
        <route edges="6:5 5:1 1:0 0:2"/>
    </vehicle>
    <vehicle id="75" depart="52.50">
        <route edges="7:3 3:1 1:0 0:2"/>
    </vehicle>
    <vehicle id="77" depart="53.90">
        <route edges="3:1"/>
    </vehicle>
    <vehicle id="79" depart="55.30">
        <route edges="6:5 5:1 1:3 3:7"/>
    </vehicle>
    <vehicle id="81" depart="56.70">
        <route edges="6:5 5:1 1:3"/>
    </vehicle>
    <vehicle id="82" depart="57.40">
        <route edges="1:3 3:7"/>
    </vehicle>
    <vehicle id="83" depart="58.10">
        <route edges="7:3 3:1"/>
    </vehicle>
    <vehicle id="84" depart="58.80">
        <route edges="1:3 3:7"/>
    </vehicle>
    <vehicle id="85" depart="59.50">
        <route edges="3:1 1:0 0:2"/>
    </vehicle>
    <vehicle id="88" depart="61.60">
        <route edges="2:0 0:1 1:3 3:7"/>
    </vehicle>
    <vehicle id="89" depart="62.30">
        <route edges="7:3 3:1"/>
    </vehicle>
    <vehicle id="90" depart="63.00">
        <route edges="7:3 3:1"/>
    </vehicle>
    <vehicle id="92" depart="64.40">
        <route edges="2:0 0:1 1:3"/>
    </vehicle>
    <vehicle id="93" depart="65.10">
        <route edges="7:3 3:1 1:5 5:6"/>
    </vehicle>
    <vehicle id="97" depart="67.90">
        <route edges="2:0 0:1 1:3 3:7"/>
    </vehicle>
    <vehicle id="98" depart="68.60">
        <route edges="1:5 5:6"/>
    </vehicle>
    <vehicle id="100" depart="70.00">
        <route edges="7:3 3:1 1:0 0:2"/>
    </vehicle>
    <vehicle id="106" depart="74.20">
        <route edges="7:3 3:1 1:0"/>
    </vehicle>
    <vehicle id="107" depart="74.90">
        <route edges="6:5 5:1 1:3 3:7"/>
    </vehicle>
    <vehicle id="108" depart="75.60">
        <route edges="2:0 0:1"/>
    </vehicle>
    <vehicle id="111" depart="77.70">
        <route edges="7:3 3:1 1:5 5:6"/>
    </vehicle>
    <vehicle id="113" depart="79.10">
        <route edges="1:3 3:7"/>
    </vehicle>
    <vehicle id="114" depart="79.80">
        <route edges="1:3 3:7"/>
    </vehicle>
    <vehicle id="115" depart="80.50">
        <route edges="0:1 1:3 3:7"/>
    </vehicle>
    <vehicle id="117" depart="81.90">
        <route edges="2:0 0:1 1:3"/>
    </vehicle>
    <vehicle id="119" depart="83.30">
        <route edges="1:3 3:7"/>
    </vehicle>
    <vehicle id="120" depart="84.00">
        <route edges="7:3 3:1 1:0"/>
    </vehicle>
    <vehicle id="122" depart="85.40">
        <route edges="3:1"/>
    </vehicle>
    <vehicle id="126" depart="88.20">
        <route edges="6:5 5:1 1:3"/>
    </vehicle>
    <vehicle id="127" depart="88.90">
        <route edges="2:0 0:1"/>
    </vehicle>
    <vehicle id="128" depart="89.60">
        <route edges="2:0 0:1 1:3 3:7"/>
    </vehicle>
    <vehicle id="131" depart="91.70">
        <route edges="7:3 3:1"/>
    </vehicle>
    <vehicle id="132" depart="92.40">
        <route edges="7:3 3:1 1:5"/>
    </vehicle>
    <vehicle id="133" depart="93.10">
        <route edges="6:5 5:1"/>
    </vehicle>
    <vehicle id="134" depart="93.80">
        <route edges="0:1 1:3 3:7"/>
    </vehicle>
    <vehicle id="135" depart="94.50">
        <route edges="2:0 0:1 1:3"/>
    </vehicle>
    <vehicle id="136" depart="95.20">
        <route edges="5:1 1:3 3:7"/>
    </vehicle>
    <vehicle id="137" depart="95.90">
        <route edges="6:5 5:1 1:3 3:7"/>
    </vehicle>
    <vehicle id="140" depart="98.00">
        <route edges="7:3 3:1 1:0 0:2"/>
    </vehicle>
    <vehicle id="143" depart="100.10">
        <route edges="1:0 0:2"/>
    </vehicle>
    <vehicle id="144" depart="100.80">
        <route edges="2:0 0:1 1:5"/>
    </vehicle>
    <vehicle id="154" depart="107.80">
        <route edges="2:0 0:1"/>
    </vehicle>
    <vehicle id="156" depart="109.20">
        <route edges="2:0 0:1 1:5 5:6"/>
    </vehicle>
    <vehicle id="157" depart="109.90">
        <route edges="3:1 1:5"/>
    </vehicle>
    <vehicle id="158" depart="110.60">
        <route edges="7:3 3:1 1:5"/>
    </vehicle>
    <vehicle id="159" depart="111.30">
        <route edges="2:0 0:1 1:5 5:6"/>
    </vehicle>
    <vehicle id="161" depart="112.70">
        <route edges="0:1 1:5 5:6"/>
    </vehicle>
    <vehicle id="162" depart="113.40">
        <route edges="5:1 1:3"/>
    </vehicle>
    <vehicle id="163" depart="114.10">
        <route edges="2:0 0:1 1:5 5:6"/>
    </vehicle>
    <vehicle id="168" depart="117.60">
        <route edges="2:0 0:1 1:3 3:7"/>
    </vehicle>
    <vehicle id="169" depart="118.30">
        <route edges="2:0 0:1 1:5 5:6"/>
    </vehicle>
    <vehicle id="173" depart="121.10">
        <route edges="6:5 5:1"/>
    </vehicle>
    <vehicle id="177" depart="123.90">
        <route edges="6:5 5:1 1:0 0:2"/>
    </vehicle>
    <vehicle id="182" depart="127.40">
        <route edges="2:0 0:1 1:3 3:7"/>
    </vehicle>
    <vehicle id="183" depart="128.10">
        <route edges="2:0 0:1"/>
    </vehicle>
    <vehicle id="185" depart="129.50">
        <route edges="7:3 3:1 1:5 5:6"/>
    </vehicle>
    <vehicle id="186" depart="130.20">
        <route edges="7:3 3:1 1:0 0:2"/>
    </vehicle>
    <vehicle id="187" depart="130.90">
        <route edges="7:3 3:1 1:5"/>
    </vehicle>
    <vehicle id="188" depart="131.60">
        <route edges="7:3 3:1 1:0"/>
    </vehicle>
    <vehicle id="191" depart="133.70">
        <route edges="6:5 5:1 1:0 0:2"/>
    </vehicle>
    <vehicle id="193" depart="135.10">
        <route edges="7:3 3:1 1:5"/>
    </vehicle>
    <vehicle id="196" depart="137.20">
        <route edges="7:3 3:1 1:5 5:6"/>
    </vehicle>
    <vehicle id="197" depart="137.90">
        <route edges="1:0 0:2"/>
    </vehicle>
    <vehicle id="198" depart="138.60">
        <route edges="2:0 0:1 1:5 5:6"/>
    </vehicle>
    <vehicle id="199" depart="139.30">
        <route edges="7:3 3:1 1:0 0:2"/>
    </vehicle>
    <vehicle id="200" depart="140.00">
        <route edges="2:0 0:1 1:5 5:6"/>
    </vehicle>
    <vehicle id="201" depart="140.70">
        <route edges="7:3 3:1 1:0 0:2"/>
    </vehicle>
    <vehicle id="203" depart="142.10">
        <route edges="1:0 0:2"/>
    </vehicle>
    <vehicle id="206" depart="144.20">
        <route edges="3:1 1:0"/>
    </vehicle>
    <vehicle id="208" depart="145.60">
        <route edges="1:3"/>
    </vehicle>
    <vehicle id="209" depart="146.30">
        <route edges="7:3 3:1 1:0 0:2"/>
    </vehicle>
    <vehicle id="210" depart="147.00">
        <route edges="1:3"/>
    </vehicle>
    <vehicle id="214" depart="149.80">
        <route edges="2:0 0:1"/>
    </vehicle>
    <vehicle id="215" depart="150.50">
        <route edges="7:3 3:1 1:0 0:2"/>
    </vehicle>
    <vehicle id="217" depart="151.90">
        <route edges="3:1 1:0"/>
    </vehicle>
    <vehicle id="218" depart="152.60">
        <route edges="7:3 3:1 1:0"/>
    </vehicle>
    <vehicle id="219" depart="153.30">
        <route edges="2:0 0:1 1:3 3:7"/>
    </vehicle>
    <vehicle id="221" depart="154.70">
        <route edges="3:1"/>
    </vehicle>
    <vehicle id="225" depart="157.50">
        <route edges="2:0 0:1 1:3 3:7"/>
    </vehicle>
    <vehicle id="227" depart="158.90">
        <route edges="7:3 3:1 1:0 0:2"/>
    </vehicle>
    <vehicle id="232" depart="162.40">
        <route edges="7:3 3:1"/>
    </vehicle>
    <vehicle id="233" depart="163.10">
        <route edges="1:3"/>
    </vehicle>
    <vehicle id="235" depart="164.50">
        <route edges="2:0 0:1 1:5 5:6"/>
    </vehicle>
    <vehicle id="238" depart="166.60">
        <route edges="2:0 0:1 1:5 5:6"/>
    </vehicle>
    <vehicle id="239" depart="167.30">
        <route edges="6:5 5:1 1:3 3:7"/>
    </vehicle>
    <vehicle id="240" depart="168.00">
        <route edges="7:3 3:1"/>
    </vehicle>
    <vehicle id="241" depart="168.70">
        <route edges="2:0 0:1"/>
    </vehicle>
    <vehicle id="242" depart="169.40">
        <route edges="6:5 5:1 1:0"/>
    </vehicle>
    <vehicle id="245" depart="171.50">
        <route edges="5:1 1:3 3:7"/>
    </vehicle>
    <vehicle id="246" depart="172.20">
        <route edges="1:3 3:7"/>
    </vehicle>
    <vehicle id="247" depart="172.90">
        <route edges="7:3 3:1 1:0 0:2"/>
    </vehicle>
    <vehicle id="250" depart="175.00">
        <route edges="2:0 0:1 1:3 3:7"/>
    </vehicle>
    <vehicle id="251" depart="175.70">
        <route edges="3:1 1:5 5:6"/>
    </vehicle>
    <vehicle id="254" depart="177.80">
        <route edges="1:3 3:7"/>
    </vehicle>
    <vehicle id="255" depart="178.50">
        <route edges="1:3 3:7"/>
    </vehicle>
    <vehicle id="257" depart="179.90">
        <route edges="7:3 3:1 1:5 5:6"/>
    </vehicle>
    <vehicle id="260" depart="182.00">
        <route edges="7:3 3:1"/>
    </vehicle>
    <vehicle id="262" depart="183.40">
        <route edges="7:3 3:1 1:0 0:2"/>
    </vehicle>
    <vehicle id="264" depart="184.80">
        <route edges="5:1 1:0 0:2"/>
    </vehicle>
    <vehicle id="269" depart="188.30">
        <route edges="7:3 3:1"/>
    </vehicle>
    <vehicle id="270" depart="189.00">
        <route edges="2:0 0:1"/>
    </vehicle>
    <vehicle id="271" depart="189.70">
        <route edges="0:1 1:5 5:6"/>
    </vehicle>
    <vehicle id="272" depart="190.40">
        <route edges="5:1 1:3"/>
    </vehicle>
    <vehicle id="274" depart="191.80">
        <route edges="7:3 3:1"/>
    </vehicle>
    <vehicle id="279" depart="195.30">
        <route edges="6:5 5:1 1:3 3:7"/>
    </vehicle>
    <vehicle id="280" depart="196.00">
        <route edges="3:1 1:0"/>
    </vehicle>
    <vehicle id="281" depart="196.70">
        <route edges="3:1 1:0 0:2"/>
    </vehicle>
    <vehicle id="283" depart="198.10">
        <route edges="7:3 3:1 1:0 0:2"/>
    </vehicle>
    <vehicle id="290" depart="203.00">
        <route edges="3:1 1:5"/>
    </vehicle>
    <vehicle id="294" depart="205.80">
        <route edges="7:3 3:1 1:5 5:6"/>
    </vehicle>
    <vehicle id="297" depart="207.90">
        <route edges="3:1 1:0"/>
    </vehicle>
    <vehicle id="300" depart="210.00">
        <route edges="7:3 3:1 1:5 5:6"/>
    </vehicle>
    <vehicle id="301" depart="210.70">
        <route edges="7:3 3:1 1:0"/>
    </vehicle>
    <vehicle id="303" depart="212.10">
        <route edges="1:0 0:2"/>
    </vehicle>
    <vehicle id="305" depart="213.50">
        <route edges="6:5 5:1 1:3"/>
    </vehicle>
    <vehicle id="306" depart="214.20">
        <route edges="2:0 0:1 1:5 5:6"/>
    </vehicle>
    <vehicle id="310" depart="217.00">
        <route edges="7:3 3:1 1:5 5:6"/>
    </vehicle>
    <vehicle id="312" depart="218.40">
        <route edges="7:3 3:1 1:0 0:2"/>
    </vehicle>
    <vehicle id="313" depart="219.10">
        <route edges="2:0 0:1 1:5 5:6"/>
    </vehicle>
    <vehicle id="316" depart="221.20">
        <route edges="2:0 0:1 1:3"/>
    </vehicle>
    <vehicle id="317" depart="221.90">
        <route edges="1:0 0:2"/>
    </vehicle>
    <vehicle id="318" depart="222.60">
        <route edges="6:5 5:1 1:0 0:2"/>
    </vehicle>
    <vehicle id="321" depart="224.70">
        <route edges="5:1 1:3 3:7"/>
    </vehicle>
    <vehicle id="322" depart="225.40">
        <route edges="3:1"/>
    </vehicle>
    <vehicle id="323" depart="226.10">
        <route edges="7:3 3:1 1:0"/>
    </vehicle>
    <vehicle id="326" depart="228.20">
        <route edges="7:3 3:1 1:0 0:2"/>
    </vehicle>
    <vehicle id="328" depart="229.60">
        <route edges="2:0 0:1 1:3 3:7"/>
    </vehicle>
    <vehicle id="329" depart="230.30">
        <route edges="7:3 3:1 1:0"/>
    </vehicle>
    <vehicle id="330" depart="231.00">
        <route edges="7:3 3:1"/>
    </vehicle>
    <vehicle id="331" depart="231.70">
        <route edges="1:0"/>
    </vehicle>
    <vehicle id="332" depart="232.40">
        <route edges="2:0 0:1 1:3 3:7"/>
    </vehicle>
    <vehicle id="333" depart="233.10">
        <route edges="1:3 3:7"/>
    </vehicle>
    <vehicle id="337" depart="235.90">
        <route edges="1:0 0:2"/>
    </vehicle>
    <vehicle id="339" depart="237.30">
        <route edges="0:1 1:3 3:7"/>
    </vehicle>
    <vehicle id="342" depart="239.40">
        <route edges="5:1 1:0 0:2"/>
    </vehicle>
    <vehicle id="344" depart="240.80">
        <route edges="7:3 3:1 1:0"/>
    </vehicle>
    <vehicle id="345" depart="241.50">
        <route edges="2:0 0:1 1:3 3:7"/>
    </vehicle>
    <vehicle id="347" depart="242.90">
        <route edges="2:0 0:1 1:3 3:7"/>
    </vehicle>
    <vehicle id="348" depart="243.60">
        <route edges="7:3 3:1 1:0 0:2"/>
    </vehicle>
    <vehicle id="349" depart="244.30">
        <route edges="3:1"/>
    </vehicle>
    <vehicle id="350" depart="245.00">
        <route edges="3:1 1:5"/>
    </vehicle>
    <vehicle id="353" depart="247.10">
        <route edges="6:5 5:1"/>
    </vehicle>
    <vehicle id="356" depart="249.20">
        <route edges="1:3"/>
    </vehicle>
    <vehicle id="357" depart="249.90">
        <route edges="2:0 0:1"/>
    </vehicle>
    <vehicle id="359" depart="251.30">
        <route edges="3:1"/>
    </vehicle>
    <vehicle id="362" depart="253.40">
        <route edges="2:0 0:1 1:3 3:7"/>
    </vehicle>
    <vehicle id="363" depart="254.10">
        <route edges="3:1 1:0 0:2"/>
    </vehicle>
    <vehicle id="366" depart="256.20">
        <route edges="5:1"/>
    </vehicle>
    <vehicle id="371" depart="259.70">
        <route edges="1:0 0:2"/>
    </vehicle>
    <vehicle id="375" depart="262.50">
        <route edges="2:0 0:1 1:3"/>
    </vehicle>
    <vehicle id="377" depart="263.90">
        <route edges="7:3 3:1 1:0 0:2"/>
    </vehicle>
    <vehicle id="379" depart="265.30">
        <route edges="2:0 0:1"/>
    </vehicle>
    <vehicle id="380" depart="266.00">
        <route edges="5:1 1:0 0:2"/>
    </vehicle>
    <vehicle id="383" depart="268.10">
        <route edges="7:3 3:1"/>
    </vehicle>
    <vehicle id="384" depart="268.80">
        <route edges="2:0 0:1 1:3"/>
    </vehicle>
    <vehicle id="386" depart="270.20">
        <route edges="1:3"/>
    </vehicle>
    <vehicle id="388" depart="271.60">
        <route edges="2:0 0:1 1:3 3:7"/>
    </vehicle>
    <vehicle id="389" depart="272.30">
        <route edges="7:3 3:1"/>
    </vehicle>
    <vehicle id="390" depart="273.00">
        <route edges="1:3 3:7"/>
    </vehicle>
    <vehicle id="391" depart="273.70">
        <route edges="6:5 5:1 1:0 0:2"/>
    </vehicle>
    <vehicle id="394" depart="275.80">
        <route edges="7:3 3:1 1:0 0:2"/>
    </vehicle>
    <vehicle id="395" depart="276.50">
        <route edges="2:0 0:1 1:5 5:6"/>
    </vehicle>
    <vehicle id="397" depart="277.90">
        <route edges="2:0 0:1 1:3 3:7"/>
    </vehicle>
    <vehicle id="398" depart="278.60">
        <route edges="2:0 0:1 1:3 3:7"/>
    </vehicle>
    <vehicle id="402" depart="281.40">
        <route edges="1:5"/>
    </vehicle>
    <vehicle id="406" depart="284.20">
        <route edges="2:0 0:1 1:5 5:6"/>
    </vehicle>
    <vehicle id="407" depart="284.90">
        <route edges="1:0 0:2"/>
    </vehicle>
    <vehicle id="409" depart="286.30">
        <route edges="2:0 0:1 1:3"/>
    </vehicle>
    <vehicle id="410" depart="287.00">
        <route edges="2:0 0:1 1:5 5:6"/>
    </vehicle>
    <vehicle id="411" depart="287.70">
        <route edges="5:1 1:0"/>
    </vehicle>
    <vehicle id="412" depart="288.40">
        <route edges="7:3 3:1 1:0"/>
    </vehicle>
    <vehicle id="413" depart="289.10">
        <route edges="0:1 1:5 5:6"/>
    </vehicle>
    <vehicle id="414" depart="289.80">
        <route edges="2:0 0:1 1:5"/>
    </vehicle>
    <vehicle id="417" depart="291.90">
        <route edges="7:3 3:1 1:5 5:6"/>
    </vehicle>
    <vehicle id="418" depart="292.60">
        <route edges="7:3 3:1 1:0 0:2"/>
    </vehicle>
    <vehicle id="419" depart="293.30">
        <route edges="7:3 3:1 1:5 5:6"/>
    </vehicle>
    <vehicle id="420" depart="294.00">
        <route edges="3:1 1:0 0:2"/>
    </vehicle>
    <vehicle id="421" depart="294.70">
        <route edges="6:5 5:1 1:0 0:2"/>
    </vehicle>
    <vehicle id="422" depart="295.40">
        <route edges="7:3 3:1 1:0 0:2"/>
    </vehicle>
    <vehicle id="424" depart="296.80">
        <route edges="6:5 5:1 1:3 3:7"/>
    </vehicle>
    <vehicle id="425" depart="297.50">
        <route edges="1:3 3:7"/>
    </vehicle>
    <vehicle id="426" depart="298.20">
        <route edges="7:3 3:1 1:0"/>
    </vehicle>
    <vehicle id="428" depart="299.60">
        <route edges="0:1 1:3 3:7"/>
    </vehicle>
    <vehicle id="429" depart="300.30">
        <route edges="5:1 1:0 0:2"/>
    </vehicle>
    <vehicle id="430" depart="301.00">
        <route edges="6:5 5:1 1:3"/>
    </vehicle>
    <vehicle id="431" depart="301.70">
        <route edges="1:3 3:7"/>
    </vehicle>
    <vehicle id="432" depart="302.40">
        <route edges="7:3 3:1 1:0 0:2"/>
    </vehicle>
    <vehicle id="433" depart="303.10">
        <route edges="2:0 0:1 1:5"/>
    </vehicle>
    <vehicle id="434" depart="303.80">
        <route edges="0:1 1:3 3:7"/>
    </vehicle>
    <vehicle id="435" depart="304.50">
        <route edges="5:1"/>
    </vehicle>
    <vehicle id="436" depart="305.20">
        <route edges="5:1 1:3 3:7"/>
    </vehicle>
    <vehicle id="437" depart="305.90">
        <route edges="2:0 0:1 1:3 3:7"/>
    </vehicle>
    <vehicle id="439" depart="307.30">
        <route edges="2:0 0:1"/>
    </vehicle>
    <vehicle id="441" depart="308.70">
        <route edges="6:5 5:1"/>
    </vehicle>
    <vehicle id="445" depart="311.50">
        <route edges="2:0 0:1 1:3 3:7"/>
    </vehicle>
    <vehicle id="446" depart="312.20">
        <route edges="7:3 3:1 1:0"/>
    </vehicle>
    <vehicle id="447" depart="312.90">
        <route edges="7:3 3:1 1:0"/>
    </vehicle>
    <vehicle id="449" depart="314.30">
        <route edges="5:1 1:3"/>
    </vehicle>
    <vehicle id="450" depart="315.00">
        <route edges="2:0 0:1 1:3 3:7"/>
    </vehicle>
    <vehicle id="451" depart="315.70">
        <route edges="7:3 3:1 1:0 0:2"/>
    </vehicle>
    <vehicle id="452" depart="316.40">
        <route edges="1:3"/>
    </vehicle>
    <vehicle id="456" depart="319.20">
        <route edges="3:1 1:0 0:2"/>
    </vehicle>
    <vehicle id="460" depart="322.00">
        <route edges="1:0 0:2"/>
    </vehicle>
    <vehicle id="465" depart="325.50">
        <route edges="5:1 1:0"/>
    </vehicle>
    <vehicle id="466" depart="326.20">
        <route edges="1:3 3:7"/>
    </vehicle>
    <vehicle id="467" depart="326.90">
        <route edges="6:5 5:1 1:3 3:7"/>
    </vehicle>
    <vehicle id="470" depart="329.00">
        <route edges="2:0 0:1 1:5"/>
    </vehicle>
    <vehicle id="472" depart="330.40">
        <route edges="2:0 0:1 1:3 3:7"/>
    </vehicle>
    <vehicle id="473" depart="331.10">
        <route edges="7:3 3:1 1:0 0:2"/>
    </vehicle>
    <vehicle id="474" depart="331.80">
        <route edges="6:5 5:1"/>
    </vehicle>
    <vehicle id="481" depart="336.70">
        <route edges="1:0 0:2"/>
    </vehicle>
    <vehicle id="484" depart="338.80">
        <route edges="7:3 3:1 1:5 5:6"/>
    </vehicle>
    <vehicle id="485" depart="339.50">
        <route edges="7:3 3:1 1:0"/>
    </vehicle>
    <vehicle id="487" depart="340.90">
        <route edges="7:3 3:1 1:0 0:2"/>
    </vehicle>
    <vehicle id="490" depart="343.00">
        <route edges="0:1 1:3"/>
    </vehicle>
    <vehicle id="491" depart="343.70">
        <route edges="1:3 3:7"/>
    </vehicle>
    <vehicle id="493" depart="345.10">
        <route edges="6:5 5:1 1:3 3:7"/>
    </vehicle>
    <vehicle id="494" depart="345.80">
        <route edges="5:1 1:0"/>
    </vehicle>
    <vehicle id="498" depart="348.60">
        <route edges="7:3 3:1"/>
    </vehicle>
    <vehicle id="499" depart="349.30">
        <route edges="1:3 3:7"/>
    </vehicle>
    <vehicle id="500" depart="350.00">
        <route edges="2:0 0:1"/>
    </vehicle>
    <vehicle id="505" depart="353.50">
        <route edges="3:1"/>
    </vehicle>
    <vehicle id="509" depart="356.30">
        <route edges="6:5 5:1 1:0 0:2"/>
    </vehicle>
    <vehicle id="518" depart="362.60">
        <route edges="0:1 1:3 3:7"/>
    </vehicle>
    <vehicle id="520" depart="364.00">
        <route edges="2:0 0:1 1:3"/>
    </vehicle>
    <vehicle id="521" depart="364.70">
        <route edges="2:0 0:1 1:3"/>
    </vehicle>
    <vehicle id="523" depart="366.10">
        <route edges="1:0"/>
    </vehicle>
    <vehicle id="524" depart="366.80">
        <route edges="0:1 1:3 3:7"/>
    </vehicle>
    <vehicle id="525" depart="367.50">
        <route edges="2:0 0:1 1:3 3:7"/>
    </vehicle>
    <vehicle id="528" depart="369.60">
        <route edges="7:3 3:1 1:0"/>
    </vehicle>
    <vehicle id="529" depart="370.30">
        <route edges="2:0 0:1 1:3"/>
    </vehicle>
    <vehicle id="532" depart="372.40">
        <route edges="6:5 5:1 1:3 3:7"/>
    </vehicle>
    <vehicle id="533" depart="373.10">
        <route edges="7:3 3:1"/>
    </vehicle>
    <vehicle id="534" depart="373.80">
        <route edges="2:0 0:1 1:3"/>
    </vehicle>
    <vehicle id="536" depart="375.20">
        <route edges="3:1 1:0 0:2"/>
    </vehicle>
    <vehicle id="540" depart="378.00">
        <route edges="6:5 5:1 1:3"/>
    </vehicle>
    <vehicle id="549" depart="384.30">
        <route edges="7:3 3:1 1:5"/>
    </vehicle>
    <vehicle id="552" depart="386.40">
        <route edges="7:3 3:1 1:5"/>
    </vehicle>
    <vehicle id="554" depart="387.80">
        <route edges="3:1 1:5 5:6"/>
    </vehicle>
    <vehicle id="555" depart="388.50">
        <route edges="7:3 3:1"/>
    </vehicle>
    <vehicle id="557" depart="389.90">
        <route edges="3:1 1:0 0:2"/>
    </vehicle>
    <vehicle id="560" depart="392.00">
        <route edges="1:0"/>
    </vehicle>
    <vehicle id="561" depart="392.70">
        <route edges="0:1 1:3 3:7"/>
    </vehicle>
    <vehicle id="562" depart="393.40">
        <route edges="6:5 5:1 1:0 0:2"/>
    </vehicle>
    <vehicle id="563" depart="394.10">
        <route edges="2:0 0:1 1:3 3:7"/>
    </vehicle>
    <vehicle id="564" depart="394.80">
        <route edges="6:5 5:1 1:3 3:7"/>
    </vehicle>
    <vehicle id="565" depart="395.50">
        <route edges="3:1 1:5 5:6"/>
    </vehicle>
    <vehicle id="566" depart="396.20">
        <route edges="3:1 1:0 0:2"/>
    </vehicle>
    <vehicle id="569" depart="398.30">
        <route edges="1:0"/>
    </vehicle>
    <vehicle id="570" depart="399.00">
        <route edges="0:1 1:3 3:7"/>
    </vehicle>
    <vehicle id="572" depart="400.40">
        <route edges="0:1 1:3 3:7"/>
    </vehicle>
    <vehicle id="576" depart="403.20">
        <route edges="2:0 0:1 1:5"/>
    </vehicle>
    <vehicle id="578" depart="404.60">
        <route edges="1:0"/>
    </vehicle>
    <vehicle id="579" depart="405.30">
        <route edges="1:0 0:2"/>
    </vehicle>
    <vehicle id="580" depart="406.00">
        <route edges="5:1 1:0 0:2"/>
    </vehicle>
    <vehicle id="584" depart="408.80">
        <route edges="2:0 0:1 1:3 3:7"/>
    </vehicle>
    <vehicle id="586" depart="410.20">
        <route edges="7:3 3:1 1:5"/>
    </vehicle>
    <vehicle id="588" depart="411.60">
        <route edges="1:3"/>
    </vehicle>
    <vehicle id="590" depart="413.00">
        <route edges="1:0 0:2"/>
    </vehicle>
    <vehicle id="594" depart="415.80">
        <route edges="6:5 5:1 1:0 0:2"/>
    </vehicle>
    <vehicle id="596" depart="417.20">
        <route edges="0:1"/>
    </vehicle>
    <vehicle id="598" depart="418.60">
        <route edges="1:3 3:7"/>
    </vehicle>
    <vehicle id="599" depart="419.30">
        <route edges="7:3 3:1 1:0"/>
    </vehicle>
    <vehicle id="602" depart="421.40">
        <route edges="7:3 3:1 1:5"/>
    </vehicle>
    <vehicle id="606" depart="424.20">
        <route edges="3:1 1:0 0:2"/>
    </vehicle>
    <vehicle id="607" depart="424.90">
        <route edges="7:3 3:1 1:0 0:2"/>
    </vehicle>
    <vehicle id="608" depart="425.60">
        <route edges="1:0"/>
    </vehicle>
    <vehicle id="611" depart="427.70">
        <route edges="3:1"/>
    </vehicle>
    <vehicle id="614" depart="429.80">
        <route edges="2:0 0:1"/>
    </vehicle>
    <vehicle id="616" depart="431.20">
        <route edges="1:0 0:2"/>
    </vehicle>
    <vehicle id="617" depart="431.90">
        <route edges="5:1 1:0 0:2"/>
    </vehicle>
    <vehicle id="619" depart="433.30">
        <route edges="7:3 3:1 1:0"/>
    </vehicle>
    <vehicle id="620" depart="434.00">
        <route edges="7:3 3:1"/>
    </vehicle>
    <vehicle id="621" depart="434.70">
        <route edges="6:5 5:1 1:0 0:2"/>
    </vehicle>
    <vehicle id="622" depart="435.40">
        <route edges="3:1 1:0 0:2"/>
    </vehicle>
    <vehicle id="623" depart="436.10">
        <route edges="1:0 0:2"/>
    </vehicle>
    <vehicle id="624" depart="436.80">
        <route edges="3:1 1:0 0:2"/>
    </vehicle>
    <vehicle id="625" depart="437.50">
        <route edges="3:1 1:0 0:2"/>
    </vehicle>
    <vehicle id="626" depart="438.20">
        <route edges="7:3 3:1 1:0 0:2"/>
    </vehicle>
    <vehicle id="628" depart="439.60">
        <route edges="6:5 5:1 1:0"/>
    </vehicle>
    <vehicle id="631" depart="441.70">
        <route edges="3:1 1:0"/>
    </vehicle>
    <vehicle id="632" depart="442.40">
        <route edges="6:5 5:1 1:0 0:2"/>
    </vehicle>
    <vehicle id="633" depart="443.10">
        <route edges="0:1 1:3 3:7"/>
    </vehicle>
    <vehicle id="639" depart="447.30">
        <route edges="7:3 3:1 1:0 0:2"/>
    </vehicle>
    <vehicle id="640" depart="448.00">
        <route edges="6:5 5:1 1:3 3:7"/>
    </vehicle>
    <vehicle id="641" depart="448.70">
        <route edges="2:0 0:1"/>
    </vehicle>
    <vehicle id="642" depart="449.40">
        <route edges="6:5 5:1 1:0 0:2"/>
    </vehicle>
    <vehicle id="645" depart="451.50">
        <route edges="0:1 1:5 5:6"/>
    </vehicle>
    <vehicle id="647" depart="452.90">
        <route edges="7:3 3:1 1:0 0:2"/>
    </vehicle>
    <vehicle id="649" depart="454.30">