<?xml version="1.0" encoding="UTF-8"?>

<!-- generated on Thu Feb 13 12:38:46 2014 by SUMO duarouter Version 0.18.0
<?xml version="1.0" encoding="UTF-8"?>

<configuration xmlns:xsi="http://www.w3.org/2001/XMLSchema-instance" xsi:noNamespaceSchemaLocation="http://sumo.sf.net/xsd/duarouterConfiguration.xsd">

    <input>
        <net-file value="simpleT.net.xml"/>
        <trip-files value="experimentos/simpleT.p0.1.10.trips.xml"/>
    </input>

    <output>
        <output-file value="experimentos/simpleT.p0.1.10.rou.xml"/>
    </output>

    <processing>
        <ignore-errors value="true"/>
    </processing>

    <random_number>
        <random value="true"/>
    </random_number>

</configuration>
-->

<routes xmlns:xsi="http://www.w3.org/2001/XMLSchema-instance" xsi:noNamespaceSchemaLocation="http://sumo.sf.net/xsd/routes_file.xsd">
    <vehicle id="4" depart="0.40">
        <route edges="2:0 0:1 1:3"/>
    </vehicle>
    <vehicle id="5" depart="0.50">
        <route edges="2:0 0:1 1:3 3:7"/>
    </vehicle>
    <vehicle id="6" depart="0.60">
        <route edges="7:3 3:1 1:0 0:2"/>
    </vehicle>
    <vehicle id="9" depart="0.90">
        <route edges="0:1"/>
    </vehicle>
    <vehicle id="10" depart="1.00">
        <route edges="2:0 0:1 1:3 3:7"/>
    </vehicle>
    <vehicle id="13" depart="1.30">
        <route edges="6:5 5:1 1:0"/>
    </vehicle>
    <vehicle id="15" depart="1.50">
        <route edges="6:5 5:1"/>
    </vehicle>
    <vehicle id="16" depart="1.60">
        <route edges="0:1 1:3 3:7"/>
    </vehicle>
    <vehicle id="20" depart="2.00">
        <route edges="0:1 1:3 3:7"/>
    </vehicle>
    <vehicle id="21" depart="2.10">
        <route edges="7:3 3:1 1:5"/>
    </vehicle>
    <vehicle id="22" depart="2.20">
        <route edges="0:1 1:3 3:7"/>
    </vehicle>
    <vehicle id="23" depart="2.30">
        <route edges="1:3"/>
    </vehicle>
    <vehicle id="25" depart="2.50">
        <route edges="0:1 1:5 5:6"/>
    </vehicle>
    <vehicle id="30" depart="3.00">
        <route edges="7:3 3:1 1:5 5:6"/>
    </vehicle>
    <vehicle id="34" depart="3.40">
        <route edges="0:1 1:3 3:7"/>
    </vehicle>
    <vehicle id="35" depart="3.50">
        <route edges="3:1 1:0 0:2"/>
    </vehicle>
    <vehicle id="36" depart="3.60">
        <route edges="3:1 1:0"/>
    </vehicle>
    <vehicle id="39" depart="3.90">
        <route edges="3:1"/>
    </vehicle>
    <vehicle id="40" depart="4.00">
        <route edges="6:5 5:1"/>
    </vehicle>
    <vehicle id="42" depart="4.20">
        <route edges="2:0 0:1 1:3 3:7"/>
    </vehicle>
    <vehicle id="45" depart="4.50">
        <route edges="7:3 3:1 1:0"/>
    </vehicle>
    <vehicle id="46" depart="4.60">
        <route edges="3:1 1:0"/>
    </vehicle>
    <vehicle id="48" depart="4.80">
        <route edges="5:1 1:0 0:2"/>
    </vehicle>
    <vehicle id="49" depart="4.90">
        <route edges="7:3 3:1 1:5"/>
    </vehicle>
    <vehicle id="51" depart="5.10">
        <route edges="3:1 1:5"/>
    </vehicle>
    <vehicle id="52" depart="5.20">
        <route edges="1:5 5:6"/>
    </vehicle>
    <vehicle id="53" depart="5.30">
        <route edges="1:0 0:2"/>
    </vehicle>
    <vehicle id="55" depart="5.50">
        <route edges="7:3 3:1 1:0 0:2"/>
    </vehicle>
    <vehicle id="56" depart="5.60">
        <route edges="7:3 3:1 1:0 0:2"/>
    </vehicle>
    <vehicle id="59" depart="5.90">
        <route edges="2:0 0:1 1:5 5:6"/>
    </vehicle>
    <vehicle id="60" depart="6.00">
        <route edges="7:3 3:1 1:0 0:2"/>
    </vehicle>
    <vehicle id="62" depart="6.20">
        <route edges="3:1 1:5 5:6"/>
    </vehicle>
    <vehicle id="69" depart="6.90">
        <route edges="6:5 5:1 1:0"/>
    </vehicle>
    <vehicle id="72" depart="7.20">
        <route edges="7:3 3:1"/>
    </vehicle>
    <vehicle id="73" depart="7.30">
        <route edges="0:1 1:3 3:7"/>
    </vehicle>
    <vehicle id="75" depart="7.50">
        <route edges="6:5 5:1 1:3 3:7"/>
    </vehicle>
    <vehicle id="76" depart="7.60">
        <route edges="7:3 3:1 1:0 0:2"/>
    </vehicle>
    <vehicle id="77" depart="7.70">
        <route edges="2:0 0:1 1:3"/>
    </vehicle>
    <vehicle id="78" depart="7.80">
        <route edges="7:3 3:1 1:0 0:2"/>
    </vehicle>
    <vehicle id="79" depart="7.90">
        <route edges="2:0 0:1 1:5 5:6"/>
    </vehicle>
    <vehicle id="80" depart="8.00">
        <route edges="2:0 0:1 1:3 3:7"/>
    </vehicle>
    <vehicle id="84" depart="8.40">
        <route edges="2:0 0:1"/>
    </vehicle>
    <vehicle id="85" depart="8.50">
        <route edges="2:0 0:1 1:3 3:7"/>
    </vehicle>
    <vehicle id="86" depart="8.60">
        <route edges="2:0 0:1 1:3 3:7"/>
    </vehicle>
    <vehicle id="88" depart="8.80">
        <route edges="0:1 1:3 3:7"/>
    </vehicle>
    <vehicle id="89" depart="8.90">
        <route edges="0:1 1:3 3:7"/>
    </vehicle>
    <vehicle id="91" depart="9.10">
        <route edges="2:0 0:1 1:5"/>
    </vehicle>
    <vehicle id="96" depart="9.60">
        <route edges="2:0 0:1 1:3 3:7"/>
    </vehicle>
    <vehicle id="97" depart="9.70">
        <route edges="2:0 0:1"/>
    </vehicle>
    <vehicle id="99" depart="9.90">
        <route edges="2:0 0:1 1:3"/>
    </vehicle>
    <vehicle id="103" depart="10.30">
        <route edges="7:3 3:1 1:0 0:2"/>
    </vehicle>
    <vehicle id="106" depart="10.60">
        <route edges="7:3 3:1 1:0 0:2"/>
    </vehicle>
    <vehicle id="108" depart="10.80">
        <route edges="7:3 3:1"/>
    </vehicle>
    <vehicle id="109" depart="10.90">
        <route edges="2:0 0:1"/>
    </vehicle>
    <vehicle id="111" depart="11.10">
        <route edges="1:0"/>
    </vehicle>
    <vehicle id="113" depart="11.30">
        <route edges="1:0 0:2"/>
    </vehicle>
    <vehicle id="114" depart="11.40">
        <route edges="1:0"/>
    </vehicle>
    <vehicle id="116" depart="11.60">
        <route edges="2:0 0:1 1:3 3:7"/>
    </vehicle>
    <vehicle id="118" depart="11.80">
        <route edges="7:3 3:1 1:0 0:2"/>
    </vehicle>
    <vehicle id="119" depart="11.90">
        <route edges="5:1 1:3"/>
    </vehicle>
    <vehicle id="120" depart="12.00">
        <route edges="0:1 1:5 5:6"/>
    </vehicle>
    <vehicle id="121" depart="12.10">
        <route edges="6:5 5:1 1:3 3:7"/>
    </vehicle>
    <vehicle id="123" depart="12.30">
        <route edges="0:1 1:3"/>
    </vehicle>
    <vehicle id="124" depart="12.40">
        <route edges="3:1 1:0 0:2"/>
    </vehicle>
    <vehicle id="125" depart="12.50">
        <route edges="3:1"/>
    </vehicle>
    <vehicle id="126" depart="12.60">
        <route edges="2:0 0:1 1:5 5:6"/>
    </vehicle>
    <vehicle id="127" depart="12.70">
        <route edges="7:3 3:1 1:0 0:2"/>
    </vehicle>
    <vehicle id="128" depart="12.80">
        <route edges="2:0 0:1"/>
    </vehicle>
    <vehicle id="130" depart="13.00">
        <route edges="2:0 0:1 1:5 5:6"/>
    </vehicle>
    <vehicle id="132" depart="13.20">
        <route edges="2:0 0:1 1:3 3:7"/>
    </vehicle>
    <vehicle id="136" depart="13.60">
        <route edges="1:5"/>
    </vehicle>
    <vehicle id="137" depart="13.70">
        <route edges="0:1 1:3 3:7"/>
    </vehicle>
    <vehicle id="139" depart="13.90">
        <route edges="2:0 0:1"/>
    </vehicle>
    <vehicle id="140" depart="14.00">
        <route edges="7:3 3:1 1:0"/>
    </vehicle>
    <vehicle id="142" depart="14.20">
        <route edges="2:0 0:1 1:3"/>
    </vehicle>
    <vehicle id="143" depart="14.30">
        <route edges="1:3"/>
    </vehicle>
    <vehicle id="144" depart="14.40">
        <route edges="0:1 1:3 3:7"/>
    </vehicle>
    <vehicle id="145" depart="14.50">
        <route edges="7:3 3:1 1:0 0:2"/>
    </vehicle>
    <vehicle id="148" depart="14.80">
        <route edges="2:0 0:1 1:5"/>
    </vehicle>
    <vehicle id="149" depart="14.90">
        <route edges="5:1 1:3 3:7"/>
    </vehicle>
    <vehicle id="150" depart="15.00">
        <route edges="1:3 3:7"/>
    </vehicle>
    <vehicle id="155" depart="15.50">
        <route edges="2:0 0:1"/>
    </vehicle>
    <vehicle id="161" depart="16.10">
        <route edges="6:5 5:1 1:0"/>
    </vehicle>
    <vehicle id="163" depart="16.30">
        <route edges="7:3 3:1"/>
    </vehicle>
    <vehicle id="164" depart="16.40">
        <route edges="7:3 3:1 1:5"/>
    </vehicle>
    <vehicle id="168" depart="16.80">
        <route edges="2:0 0:1 1:3 3:7"/>
    </vehicle>
    <vehicle id="170" depart="17.00">
        <route edges="5:1 1:3 3:7"/>
    </vehicle>
    <vehicle id="172" depart="17.20">
        <route edges="2:0 0:1 1:3"/>
    </vehicle>
    <vehicle id="173" depart="17.30">
        <route edges="5:1"/>
    </vehicle>
    <vehicle id="175" depart="17.50">
        <route edges="7:3 3:1 1:0"/>
    </vehicle>
    <vehicle id="176" depart="17.60">
        <route edges="7:3 3:1"/>
    </vehicle>
    <vehicle id="177" depart="17.70">
        <route edges="5:1 1:3 3:7"/>
    </vehicle>
    <vehicle id="178" depart="17.80">
        <route edges="2:0 0:1 1:3"/>
    </vehicle>
    <vehicle id="185" depart="18.50">
        <route edges="7:3 3:1 1:5"/>
    </vehicle>
    <vehicle id="186" depart="18.60">
        <route edges="2:0 0:1 1:3 3:7"/>
    </vehicle>
    <vehicle id="187" depart="18.70">
        <route edges="1:5 5:6"/>
    </vehicle>
    <vehicle id="190" depart="19.00">
        <route edges="7:3 3:1 1:5 5:6"/>
    </vehicle>
    <vehicle id="194" depart="19.40">
        <route edges="2:0 0:1 1:3"/>
    </vehicle>
    <vehicle id="197" depart="19.70">
        <route edges="6:5 5:1 1:3"/>
    </vehicle>
    <vehicle id="198" depart="19.80">
        <route edges="2:0 0:1 1:5 5:6"/>
    </vehicle>
    <vehicle id="200" depart="20.00">
        <route edges="1:5 5:6"/>
    </vehicle>
    <vehicle id="201" depart="20.10">
        <route edges="2:0 0:1"/>
    </vehicle>
    <vehicle id="204" depart="20.40">
        <route edges="3:1 1:5"/>
    </vehicle>
    <vehicle id="206" depart="20.60">
        <route edges="2:0 0:1"/>
    </vehicle>
    <vehicle id="207" depart="20.70">
        <route edges="7:3 3:1 1:0 0:2"/>
    </vehicle>
    <vehicle id="208" depart="20.80">
        <route edges="1:0 0:2"/>
    </vehicle>
    <vehicle id="209" depart="20.90">
        <route edges="6:5 5:1 1:0 0:2"/>
    </vehicle>
    <vehicle id="211" depart="21.10">
        <route edges="3:1 1:0"/>
    </vehicle>
    <vehicle id="213" depart="21.30">
        <route edges="0:1 1:5 5:6"/>
    </vehicle>
    <vehicle id="214" depart="21.40">
        <route edges="7:3 3:1"/>
    </vehicle>
    <vehicle id="215" depart="21.50">
        <route edges="0:1"/>
    </vehicle>
    <vehicle id="217" depart="21.70">
        <route edges="1:3 3:7"/>
    </vehicle>
    <vehicle id="218" depart="21.80">
        <route edges="7:3 3:1 1:0 0:2"/>
    </vehicle>
    <vehicle id="219" depart="21.90">
        <route edges="2:0 0:1 1:3"/>
    </vehicle>
    <vehicle id="220" depart="22.00">
        <route edges="3:1 1:0 0:2"/>
    </vehicle>
    <vehicle id="221" depart="22.10">
        <route edges="1:0 0:2"/>
    </vehicle>
    <vehicle id="222" depart="22.20">
        <route edges="2:0 0:1 1:3"/>
    </vehicle>
    <vehicle id="223" depart="22.30">
        <route edges="7:3 3:1 1:5"/>
    </vehicle>
    <vehicle id="224" depart="22.40">
        <route edges="7:3 3:1"/>
    </vehicle>
    <vehicle id="225" depart="22.50">
        <route edges="7:3 3:1 1:5 5:6"/>
    </vehicle>
    <vehicle id="226" depart="22.60">
        <route edges="0:1"/>
    </vehicle>
    <vehicle id="227" depart="22.70">
        <route edges="7:3 3:1 1:0 0:2"/>
    </vehicle>
    <vehicle id="229" depart="22.90">
        <route edges="2:0 0:1"/>
    </vehicle>
    <vehicle id="230" depart="23.00">
        <route edges="7:3 3:1 1:0 0:2"/>
    </vehicle>
    <vehicle id="234" depart="23.40">
        <route edges="3:1"/>
    </vehicle>
    <vehicle id="236" depart="23.60">
        <route edges="5:1 1:3 3:7"/>
    </vehicle>
    <vehicle id="237" depart="23.70">
        <route edges="7:3 3:1 1:0"/>
    </vehicle>
    <vehicle id="240" depart="24.00">
        <route edges="7:3 3:1 1:5 5:6"/>
    </vehicle>
    <vehicle id="241" depart="24.10">
        <route edges="6:5 5:1 1:3 3:7"/>
    </vehicle>
    <vehicle id="243" depart="24.30">
        <route edges="3:1 1:5 5:6"/>
    </vehicle>
    <vehicle id="244" depart="24.40">
        <route edges="6:5 5:1 1:3"/>
    </vehicle>
    <vehicle id="249" depart="24.90">
        <route edges="7:3 3:1 1:0 0:2"/>
    </vehicle>
    <vehicle id="252" depart="25.20">
        <route edges="2:0 0:1"/>
    </vehicle>
    <vehicle id="256" depart="25.60">
        <route edges="7:3 3:1"/>
    </vehicle>
    <vehicle id="258" depart="25.80">
        <route edges="5:1 1:3 3:7"/>
    </vehicle>
    <vehicle id="261" depart="26.10">
        <route edges="7:3 3:1 1:0 0:2"/>
    </vehicle>
    <vehicle id="262" depart="26.20">
        <route edges="5:1 1:0"/>
    </vehicle>
    <vehicle id="263" depart="26.30">
        <route edges="7:3 3:1 1:0 0:2"/>
    </vehicle>
    <vehicle id="265" depart="26.50">
        <route edges="1:3 3:7"/>
    </vehicle>
    <vehicle id="266" depart="26.60">
        <route edges="2:0 0:1 1:3"/>
    </vehicle>
    <vehicle id="267" depart="26.70">
        <route edges="0:1 1:3 3:7"/>
    </vehicle>
    <vehicle id="268" depart="26.80">
        <route edges="0:1"/>
    </vehicle>
    <vehicle id="270" depart="27.00">
        <route edges="1:0 0:2"/>
    </vehicle>
    <vehicle id="272" depart="27.20">
        <route edges="2:0 0:1 1:3 3:7"/>
    </vehicle>
    <vehicle id="274" depart="27.40">
        <route edges="3:1 1:0 0:2"/>
    </vehicle>
    <vehicle id="276" depart="27.60">
        <route edges="7:3 3:1 1:0 0:2"/>
    </vehicle>
    <vehicle id="277" depart="27.70">
        <route edges="2:0 0:1 1:3 3:7"/>
    </vehicle>
    <vehicle id="278" depart="27.80">
        <route edges="7:3 3:1 1:0"/>
    </vehicle>
    <vehicle id="280" depart="28.00">
        <route edges="1:0 0:2"/>
    </vehicle>
    <vehicle id="285" depart="28.50">
        <route edges="0:1"/>
    </vehicle>
    <vehicle id="286" depart="28.60">
        <route edges="2:0 0:1 1:3 3:7"/>
    </vehicle>
    <vehicle id="288" depart="28.80">
        <route edges="3:1 1:0 0:2"/>
    </vehicle>
    <vehicle id="292" depart="29.20">
        <route edges="7:3 3:1 1:5 5:6"/>
    </vehicle>
    <vehicle id="293" depart="29.30">
        <route edges="0:1 1:5 5:6"/>
    </vehicle>
    <vehicle id="297" depart="29.70">
        <route edges="7:3 3:1 1:0 0:2"/>
    </vehicle>
    <vehicle id="299" depart="29.90">
        <route edges="7:3 3:1 1:5 5:6"/>
    </vehicle>
    <vehicle id="300" depart="30.00">
        <route edges="7:3 3:1 1:5 5:6"/>
    </vehicle>
    <vehicle id="302" depart="30.20">
        <route edges="7:3 3:1 1:0 0:2"/>
    </vehicle>
    <vehicle id="303" depart="30.30">
        <route edges="0:1 1:3"/>
    </vehicle>
    <vehicle id="304" depart="30.40">
        <route edges="7:3 3:1 1:5"/>
    </vehicle>
    <vehicle id="305" depart="30.50">
        <route edges="7:3 3:1 1:0 0:2"/>
    </vehicle>
    <vehicle id="308" depart="30.80">
        <route edges="1:3 3:7"/>
    </vehicle>
    <vehicle id="312" depart="31.20">
        <route edges="1:0 0:2"/>
    </vehicle>
    <vehicle id="315" depart="31.50">
        <route edges="7:3 3:1 1:0 0:2"/>
    </vehicle>
    <vehicle id="316" depart="31.60">
        <route edges="7:3 3:1 1:0 0:2"/>
    </vehicle>
    <vehicle id="320" depart="32.00">
        <route edges="2:0 0:1 1:5 5:6"/>
    </vehicle>
    <vehicle id="321" depart="32.10">
        <route edges="2:0 0:1 1:5 5:6"/>
    </vehicle>
    <vehicle id="323" depart="32.30">
        <route edges="6:5 5:1 1:0 0:2"/>
    </vehicle>
    <vehicle id="324" depart="32.40">
        <route edges="3:1 1:0 0:2"/>
    </vehicle>
    <vehicle id="325" depart="32.50">
        <route edges="0:1 1:3 3:7"/>
    </vehicle>
    <vehicle id="326" depart="32.60">
        <route edges="2:0 0:1 1:5 5:6"/>
    </vehicle>
    <vehicle id="329" depart="32.90">
        <route edges="2:0 0:1 1:5 5:6"/>
    </vehicle>
    <vehicle id="330" depart="33.00">
        <route edges="1:3 3:7"/>
    </vehicle>
    <vehicle id="332" depart="33.20">
        <route edges="2:0 0:1 1:3 3:7"/>
    </vehicle>
    <vehicle id="333" depart="33.30">
        <route edges="2:0 0:1 1:5"/>
    </vehicle>
    <vehicle id="335" depart="33.50">
        <route edges="6:5 5:1 1:3 3:7"/>
    </vehicle>
    <vehicle id="337" depart="33.70">
        <route edges="1:3"/>
    </vehicle>
    <vehicle id="339" depart="33.90">
        <route edges="1:0"/>
    </vehicle>
    <vehicle id="341" depart="34.10">
        <route edges="6:5 5:1 1:0 0:2"/>
    </vehicle>
    <vehicle id="342" depart="34.20">
        <route edges="0:1"/>
    </vehicle>
    <vehicle id="343" depart="34.30">
        <route edges="2:0 0:1 1:3 3:7"/>
    </vehicle>
    <vehicle id="344" depart="34.40">
        <route edges="0:1 1:3 3:7"/>
    </vehicle>
    <vehicle id="347" depart="34.70">
        <route edges="7:3 3:1"/>
    </vehicle>
    <vehicle id="348" depart="34.80">
        <route edges="7:3 3:1 1:5 5:6"/>
    </vehicle>
    <vehicle id="349" depart="34.90">
        <route edges="1:3"/>
    </vehicle>
    <vehicle id="351" depart="35.10">
        <route edges="0:1"/>
    </vehicle>
    <vehicle id="352" depart="35.20">
        <route edges="3:1 1:5 5:6"/>
    </vehicle>
    <vehicle id="354" depart="35.40">
        <route edges="7:3 3:1"/>
    </vehicle>
    <vehicle id="355" depart="35.50">
        <route edges="7:3 3:1 1:0 0:2"/>
    </vehicle>
    <vehicle id="357" depart="35.70">
        <route edges="6:5 5:1 1:0 0:2"/>
    </vehicle>
    <vehicle id="360" depart="36.00">
        <route edges="6:5 5:1 1:3 3:7"/>
    </vehicle>
    <vehicle id="365" depart="36.50">
        <route edges="0:1 1:3 3:7"/>
    </vehicle>
    <vehicle id="367" depart="36.70">
        <route edges="2:0 0:1 1:3"/>
    </vehicle>
    <vehicle id="368" depart="36.80">
        <route edges="1:0 0:2"/>
    </vehicle>
    <vehicle id="369" depart="36.90">
        <route edges="1:3 3:7"/>
    </vehicle>
    <vehicle id="370" depart="37.00">
        <route edges="1:0"/>
    </vehicle>
    <vehicle id="372" depart="37.20">
        <route edges="1:5"/>
    </vehicle>
    <vehicle id="373" depart="37.30">
        <route edges="3:1 1:0 0:2"/>
    </vehicle>
    <vehicle id="376" depart="37.60">
        <route edges="5:1 1:3 3:7"/>
    </vehicle>
    <vehicle id="377" depart="37.70">
        <route edges="0:1 1:3 3:7"/>
    </vehicle>
    <vehicle id="378" depart="37.80">
        <route edges="7:3 3:1 1:0"/>
    </vehicle>
    <vehicle id="379" depart="37.90">
        <route edges="2:0 0:1"/>
    </vehicle>
    <vehicle id="381" depart="38.10">
        <route edges="1:3 3:7"/>
    </vehicle>
    <vehicle id="383" depart="38.30">
        <route edges="1:0 0:2"/>
    </vehicle>
    <vehicle id="385" depart="38.50">
        <route edges="6:5 5:1 1:0 0:2"/>
    </vehicle>
    <vehicle id="389" depart="38.90">
        <route edges="7:3 3:1 1:0 0:2"/>
    </vehicle>
    <vehicle id="391" depart="39.10">
        <route edges="5:1 1:0 0:2"/>
    </vehicle>
    <vehicle id="393" depart="39.30">
        <route edges="7:3 3:1 1:0"/>
    </vehicle>
    <vehicle id="394" depart="39.40">
        <route edges="7:3 3:1 1:0 0:2"/>
    </vehicle>
    <vehicle id="399" depart="39.90">
        <route edges="2:0 0:1 1:3 3:7"/>
    </vehicle>
    <vehicle id="402" depart="40.20">
        <route edges="2:0 0:1 1:3 3:7"/>
    </vehicle>
    <vehicle id="403" depart="40.30">
        <route edges="2:0 0:1"/>
    </vehicle>
    <vehicle id="408" depart="40.80">
        <route edges="2:0 0:1 1:3 3:7"/>
    </vehicle>
    <vehicle id="410" depart="41.00">
        <route edges="2:0 0:1 1:3 3:7"/>
    </vehicle>
    <vehicle id="412" depart="41.20">
        <route edges="6:5 5:1 1:0"/>
    </vehicle>
    <vehicle id="413" depart="41.30">
        <route edges="3:1 1:5 5:6"/>
    </vehicle>
    <vehicle id="414" depart="41.40">
        <route edges="7:3 3:1 1:5 5:6"/>
    </vehicle>
    <vehicle id="415" depart="41.50">
        <route edges="5:1 1:3 3:7"/>
    </vehicle>
    <vehicle id="417" depart="41.70">
        <route edges="3:1 1:5 5:6"/>
    </vehicle>
    <vehicle id="418" depart="41.80">
        <route edges="7:3 3:1 1:0 0:2"/>
    </vehicle>
    <vehicle id="419" depart="41.90">
        <route edges="1:0"/>
    </vehicle>
    <vehicle id="421" depart="42.10">
        <route edges="6:5 5:1 1:0 0:2"/>
    </vehicle>
    <vehicle id="422" depart="42.20">
        <route edges="1:3 3:7"/>
    </vehicle>
    <vehicle id="425" depart="42.50">
        <route edges="5:1"/>
    </vehicle>
    <vehicle id="426" depart="42.60">
        <route edges="7:3 3:1 1:0 0:2"/>
    </vehicle>
    <vehicle id="428" depart="42.80">
        <route edges="2:0 0:1 1:3 3:7"/>
    </vehicle>
    <vehicle id="429" depart="42.90">
        <route edges="0:1 1:5 5:6"/>
    </vehicle>
    <vehicle id="430" depart="43.00">
        <route edges="5:1 1:0 0:2"/>
    </vehicle>
    <vehicle id="432" depart="43.20">
        <route edges="1:3"/>
    </vehicle>
    <vehicle id="433" depart="43.30">
        <route edges="3:1 1:0 0:2"/>
    </vehicle>
    <vehicle id="438" depart="43.80">
        <route edges="2:0 0:1 1:3"/>
    </vehicle>
    <vehicle id="440" depart="44.00">
        <route edges="0:1 1:3 3:7"/>
    </vehicle>
    <vehicle id="441" depart="44.10">
        <route edges="7:3 3:1"/>
    </vehicle>
    <vehicle id="444" depart="44.40">
        <route edges="2:0 0:1 1:3"/>
    </vehicle>
    <vehicle id="445" depart="44.50">
        <route edges="2:0 0:1 1:3 3:7"/>
    </vehicle>
    <vehicle id="448" depart="44.80">
        <route edges="7:3 3:1 1:0 0:2"/>
    </vehicle>
    <vehicle id="452" depart="45.20">
        <route edges="6:5 5:1 1:3 3:7"/>
    </vehicle>
    <vehicle id="453" depart="45.30">
        <route edges="5:1 1:0"/>
    </vehicle>
    <vehicle id="454" depart="45.40">
        <route edges="7:3 3:1 1:0 0:2"/>
    </vehicle>
    <vehicle id="455" depart="45.50">
        <route edges="1:0"/>
    </vehicle>
    <vehicle id="457" depart="45.70">
        <route edges="2:0 0:1 1:5 5:6"/>
    </vehicle>
    <vehicle id="459" depart="45.90">
        <route edges="2:0 0:1 1:5 5:6"/>
    </vehicle>
    <vehicle id="461" depart="46.10">
        <route edges="7:3 3:1 1:0 0:2"/>
    </vehicle>
    <vehicle id="464" depart="46.40">
        <route edges="2:0 0:1 1:3 3:7"/>
    </vehicle>
    <vehicle id="468" depart="46.80">
        <route edges="1:3 3:7"/>
    </vehicle>
    <vehicle id="470" depart="47.00">
        <route edges="2:0 0:1 1:3 3:7"/>
    </vehicle>
    <vehicle id="472" depart="47.20">
        <route edges="7:3 3:1 1:0 0:2"/>
    </vehicle>
    <vehicle id="474" depart="47.40">
        <route edges="3:1 1:5 5:6"/>
    </vehicle>
    <vehicle id="475" depart="47.50">
        <route edges="7:3 3:1 1:0 0:2"/>
    </vehicle>
    <vehicle id="478" depart="47.80">
        <route edges="0:1 1:3 3:7"/>
    </vehicle>
    <vehicle id="479" depart="47.90">
        <route edges="5:1 1:3"/>
    </vehicle>
    <vehicle id="480" depart="48.00">
        <route edges="7:3 3:1"/>
    </vehicle>
    <vehicle id="481" depart="48.10">
        <route edges="7:3 3:1 1:5"/>
    </vehicle>
    <vehicle id="482" depart="48.20">
        <route edges="3:1"/>
    </vehicle>
    <vehicle id="486" depart="48.60">
        <route edges="7:3 3:1 1:0"/>
    </vehicle>
    <vehicle id="487" depart="48.70">
        <route edges="2:0 0:1 1:3"/>
    </vehicle>
    <vehicle id="491" depart="49.10">
        <route edges="2:0 0:1 1:3"/>
    </vehicle>
    <vehicle id="493" depart="49.30">
        <route edges="6:5 5:1 1:0 0:2"/>
    </vehicle>
    <vehicle id="494" depart="49.40">
        <route edges="0:1 1:5 5:6"/>
    </vehicle>
    <vehicle id="495" depart="49.50">
        <route edges="6:5 5:1 1:0 0:2"/>
    </vehicle>
    <vehicle id="498" depart="49.80">
        <route edges="7:3 3:1 1:0"/>
    </vehicle>
    <vehicle id="500" depart="50.00">
        <route edges="2:0 0:1"/>
    </vehicle>
    <vehicle id="506" depart="50.60">
        <route edges="2:0 0:1 1:3"/>
    </vehicle>
    <vehicle id="508" depart="50.80">
        <route edges="2:0 0:1 1:5 5:6"/>
    </vehicle>
    <vehicle id="509" depart="50.90">
        <route edges="7:3 3:1 1:0"/>
    </vehicle>
    <vehicle id="512" depart="51.20">
        <route edges="7:3 3:1"/>
    </vehicle>
    <vehicle id="513" depart="51.30">
        <route edges="2:0 0:1 1:3 3:7"/>
    </vehicle>
    <vehicle id="515" depart="51.50">
        <route edges="2:0 0:1 1:3"/>
    </vehicle>
    <vehicle id="516" depart="51.60">
        <route edges="5:1 1:3 3:7"/>
    </vehicle>
    <vehicle id="518" depart="51.80">
        <route edges="5:1 1:3 3:7"/>
    </vehicle>
    <vehicle id="519" depart="51.90">
        <route edges="0:1 1:3 3:7"/>
    </vehicle>
    <vehicle id="521" depart="52.10">
        <route edges="5:1 1:0 0:2"/>
    </vehicle>
    <vehicle id="522" depart="52.20">
        <route edges="3:1 1:0 0:2"/>
    </vehicle>
    <vehicle id="523" depart="52.30">
        <route edges="6:5 5:1 1:3 3:7"/>
    </vehicle>
    <vehicle id="530" depart="53.00">
        <route edges="2:0 0:1 1:3"/>
    </vehicle>
    <vehicle id="531" depart="53.10">
        <route edges="2:0 0:1"/>
    </vehicle>
    <vehicle id="533" depart="53.30">
        <route edges="0:1"/>
    </vehicle>
    <vehicle id="535" depart="53.50">
        <route edges="5:1 1:0"/>
    </vehicle>
    <vehicle id="537" depart="53.70">
        <route edges="6:5 5:1 1:0 0:2"/>
    </vehicle>
    <vehicle id="538" depart="53.80">
        <route edges="2:0 0:1 1:5 5:6"/>
    </vehicle>
    <vehicle id="539" depart="53.90">
        <route edges="1:3"/>
    </vehicle>
    <vehicle id="543" depart="54.30">
        <route edges="5:1 1:0"/>
    </vehicle>
    <vehicle id="548" depart="54.80">
        <route edges="5:1"/>
    </vehicle>
    <vehicle id="552" depart="55.20">
        <route edges="1:3 3:7"/>
    </vehicle>
    <vehicle id="553" depart="55.30">
        <route edges="7:3 3:1 1:0 0:2"/>
    </vehicle>
    <vehicle id="554" depart="55.40">
        <route edges="2:0 0:1 1:3 3:7"/>
    </vehicle>
    <vehicle id="555" depart="55.50">
        <route edges="7:3 3:1"/>
    </vehicle>
    <vehicle id="556" depart="55.60">
        <route edges="7:3 3:1 1:0 0:2"/>
    </vehicle>
    <vehicle id="557" depart="55.70">
        <route edges="6:5 5:1 1:0 0:2"/>
    </vehicle>
    <vehicle id="558" depart="55.80">
        <route edges="1:5 5:6"/>
    </vehicle>
    <vehicle id="559" depart="55.90">
        <route edges="2:0 0:1 1:3 3:7"/>
    </vehicle>
    <vehicle id="564" depart="56.40">
        <route edges="0:1"/>
    </vehicle>
    <vehicle id="565" depart="56.50">
        <route edges="7:3 3:1 1:0 0:2"/>
    </vehicle>
    <vehicle id="566" depart="56.60">
        <route edges="3:1 1:0"/>
    </vehicle>
    <vehicle id="569" depart="56.90">
        <route edges="7:3 3:1 1:5 5:6"/>
    </vehicle>
    <vehicle id="571" depart="57.10">
        <route edges="1:0 0:2"/>
    </vehicle>
    <vehicle id="572" depart="57.20">
        <route edges="7:3 3:1 1:0 0:2"/>
    </vehicle>
    <vehicle id="573" depart="57.30">
        <route edges="6:5 5:1"/>
    </vehicle>
    <vehicle id="574" depart="57.40">
        <route edges="6:5 5:1 1:3 3:7"/>
    </vehicle>
    <vehicle id="575" depart="57.50">
        <route edges="1:3"/>
    </vehicle>
    <vehicle id="577" depart="57.70">
        <route edges="6:5 5:1 1:0 0:2"/>
    </vehicle>
    <vehicle id="578" depart="57.80">
        <route edges="5:1 1:0"/>
    </vehicle>
    <vehicle id="579" depart="57.90">
        <route edges="7:3 3:1 1:0 0:2"/>
    </vehicle>
    <vehicle id="585" depart="58.50">
        <route edges="2:0 0:1 1:3 3:7"/>
    </vehicle>
    <vehicle id="586" depart="58.60">
        <route edges="1:3 3:7"/>
    </vehicle>
    <vehicle id="588" depart="58.80">
        <route edges="2:0 0:1 1:3 3:7"/>
    </vehicle>
    <vehicle id="589" depart="58.90">
        <route edges="1:3 3:7"/>
    </vehicle>
    <vehicle id="590" depart="59.00">
        <route edges="0:1 1:3"/>
    </vehicle>
    <vehicle id="593" depart="59.30">
        <route edges="0:1 1:3 3:7"/>
    </vehicle>
    <vehicle id="595" depart="59.50">
        <route edges="6:5 5:1 1:3 3:7"/>
    </vehicle>
    <vehicle id="597" depart="59.70">
        <route edges="2:0 0:1 1:3 3:7"/>
    </vehicle>
    <vehicle id="599" depart="59.90">
        <route edges="2:0 0:1 1:3 3:7"/>
    </vehicle>
    <vehicle id="600" depart="60.00">
        <route edges="6:5 5:1 1:3 3:7"/>
    </vehicle>
    <vehicle id="602" depart="60.20">
        <route edges="0:1 1:5 5:6"/>
    </vehicle>
    <vehicle id="603" depart="60.30">
        <route edges="2:0 0:1 1:3"/>
    </vehicle>
    <vehicle id="605" depart="60.50">
        <route edges="1:0 0:2"/>
    </vehicle>
    <vehicle id="613" depart="61.30">
        <route edges="0:1 1:5"/>
    </vehicle>
    <vehicle id="615" depart="61.50">
        <route edges="7:3 3:1"/>
    </vehicle>
    <vehicle id="618" depart="61.80">
        <route edges="1:0 0:2"/>
    </vehicle>
    <vehicle id="620" depart="62.00">
        <route edges="0:1 1:5 5:6"/>
    </vehicle>
    <vehicle id="623" depart="62.30">
        <route edges="2:0 0:1 1:3 3:7"/>
    </vehicle>
    <vehicle id="624" depart="62.40">
        <route edges="0:1"/>
    </vehicle>
    <vehicle id="625" depart="62.50">
        <route edges="5:1 1:0 0:2"/>
    </vehicle>
    <vehicle id="627" depart="62.70">
        <route edges="6:5 5:1 1:0"/>
    </vehicle>
    <vehicle id="628" depart="62.80">
        <route edges="0:1 1:5 5:6"/>
    </vehicle>
    <vehicle id="629" depart="62.90">
        <route edges="7:3 3:1 1:0"/>
    </vehicle>