<?xml version="1.0" encoding="UTF-8"?>

<!-- generated on Thu Feb 13 12:38:56 2014 by SUMO duarouter Version 0.18.0
<?xml version="1.0" encoding="UTF-8"?>

<configuration xmlns:xsi="http://www.w3.org/2001/XMLSchema-instance" xsi:noNamespaceSchemaLocation="http://sumo.sf.net/xsd/duarouterConfiguration.xsd">

    <input>
        <net-file value="simpleT.net.xml"/>
        <trip-files value="experimentos/simpleT.p0.4.1.trips.xml"/>
    </input>

    <output>
        <output-file value="experimentos/simpleT.p0.4.1.rou.xml"/>
    </output>

    <processing>
        <ignore-errors value="true"/>
    </processing>

    <random_number>
        <random value="true"/>
    </random_number>

</configuration>
-->

<routes xmlns:xsi="http://www.w3.org/2001/XMLSchema-instance" xsi:noNamespaceSchemaLocation="http://sumo.sf.net/xsd/routes_file.xsd">
    <vehicle id="0" depart="0.00">
        <route edges="2:0 0:1 1:3"/>
    </vehicle>
    <vehicle id="1" depart="0.40">
        <route edges="0:1"/>
    </vehicle>
    <vehicle id="3" depart="1.20">
        <route edges="1:0 0:2"/>
    </vehicle>
    <vehicle id="4" depart="1.60">
        <route edges="7:3 3:1 1:0"/>
    </vehicle>
    <vehicle id="5" depart="2.00">
        <route edges="2:0 0:1 1:5"/>
    </vehicle>
    <vehicle id="6" depart="2.40">
        <route edges="1:3 3:7"/>
    </vehicle>
    <vehicle id="7" depart="2.80">
        <route edges="1:0"/>
    </vehicle>
    <vehicle id="8" depart="3.20">
        <route edges="2:0 0:1 1:3"/>
    </vehicle>
    <vehicle id="9" depart="3.60">
        <route edges="2:0 0:1"/>
    </vehicle>
    <vehicle id="10" depart="4.00">
        <route edges="1:0"/>
    </vehicle>
    <vehicle id="11" depart="4.40">
        <route edges="2:0 0:1 1:3 3:7"/>
    </vehicle>
    <vehicle id="14" depart="5.60">
        <route edges="3:1"/>
    </vehicle>
    <vehicle id="16" depart="6.40">
        <route edges="0:1"/>
    </vehicle>
    <vehicle id="18" depart="7.20">
        <route edges="5:1 1:0 0:2"/>
    </vehicle>
    <vehicle id="19" depart="7.60">
        <route edges="3:1 1:5"/>
    </vehicle>
    <vehicle id="20" depart="8.00">
        <route edges="6:5 5:1 1:0"/>
    </vehicle>
    <vehicle id="21" depart="8.40">
        <route edges="5:1 1:3 3:7"/>
    </vehicle>
    <vehicle id="23" depart="9.20">
        <route edges="1:5 5:6"/>
    </vehicle>
    <vehicle id="24" depart="9.60">
        <route edges="1:3 3:7"/>
    </vehicle>
    <vehicle id="26" depart="10.40">
        <route edges="6:5 5:1 1:0"/>
    </vehicle>
    <vehicle id="28" depart="11.20">
        <route edges="2:0 0:1 1:5 5:6"/>
    </vehicle>
    <vehicle id="29" depart="11.60">
        <route edges="2:0 0:1 1:5"/>
    </vehicle>
    <vehicle id="31" depart="12.40">
        <route edges="7:3 3:1 1:5 5:6"/>
    </vehicle>
    <vehicle id="34" depart="13.60">
        <route edges="7:3 3:1 1:0"/>
    </vehicle>
    <vehicle id="35" depart="14.00">
        <route edges="3:1"/>
    </vehicle>
    <vehicle id="36" depart="14.40">
        <route edges="1:0 0:2"/>
    </vehicle>
    <vehicle id="41" depart="16.40">
        <route edges="0:1 1:3 3:7"/>
    </vehicle>
    <vehicle id="44" depart="17.60">
        <route edges="7:3 3:1"/>
    </vehicle>
    <vehicle id="47" depart="18.80">
        <route edges="1:3 3:7"/>
    </vehicle>
    <vehicle id="48" depart="19.20">
        <route edges="7:3 3:1 1:0 0:2"/>
    </vehicle>
    <vehicle id="51" depart="20.40">
        <route edges="6:5 5:1 1:0 0:2"/>
    </vehicle>
    <vehicle id="53" depart="21.20">
        <route edges="1:5 5:6"/>
    </vehicle>
    <vehicle id="54" depart="21.60">
        <route edges="3:1 1:0"/>
    </vehicle>
    <vehicle id="55" depart="22.00">
        <route edges="6:5 5:1 1:0 0:2"/>
    </vehicle>
    <vehicle id="57" depart="22.80">
        <route edges="1:3 3:7"/>
    </vehicle>
    <vehicle id="60" depart="24.00">
        <route edges="7:3 3:1"/>
    </vehicle>
    <vehicle id="66" depart="26.40">
        <route edges="6:5 5:1 1:0 0:2"/>
    </vehicle>
    <vehicle id="71" depart="28.40">
        <route edges="7:3 3:1 1:5 5:6"/>
    </vehicle>
    <vehicle id="73" depart="29.20">
        <route edges="2:0 0:1 1:5 5:6"/>
    </vehicle>
    <vehicle id="75" depart="30.00">
        <route edges="1:0 0:2"/>
    </vehicle>
    <vehicle id="76" depart="30.40">
        <route edges="3:1 1:5 5:6"/>
    </vehicle>
    <vehicle id="77" depart="30.80">
        <route edges="7:3 3:1 1:0"/>
    </vehicle>
    <vehicle id="78" depart="31.20">
        <route edges="0:1 1:3 3:7"/>
    </vehicle>
    <vehicle id="80" depart="32.00">
        <route edges="1:0"/>
    </vehicle>
    <vehicle id="81" depart="32.40">
        <route edges="5:1 1:0 0:2"/>
    </vehicle>
    <vehicle id="82" depart="32.80">
        <route edges="0:1 1:5"/>
    </vehicle>
    <vehicle id="83" depart="33.20">
        <route edges="2:0 0:1 1:3 3:7"/>
    </vehicle>
    <vehicle id="86" depart="34.40">
        <route edges="1:3 3:7"/>
    </vehicle>
    <vehicle id="87" depart="34.80">
        <route edges="2:0 0:1 1:3 3:7"/>
    </vehicle>
    <vehicle id="91" depart="36.40">
        <route edges="7:3 3:1 1:0"/>
    </vehicle>
    <vehicle id="95" depart="38.00">
        <route edges="5:1 1:0 0:2"/>
    </vehicle>
    <vehicle id="96" depart="38.40">
        <route edges="2:0 0:1 1:3 3:7"/>
    </vehicle>
    <vehicle id="98" depart="39.20">
        <route edges="3:1 1:0"/>
    </vehicle>
    <vehicle id="99" depart="39.60">
        <route edges="2:0 0:1 1:3 3:7"/>
    </vehicle>
    <vehicle id="100" depart="40.00">
        <route edges="3:1 1:0 0:2"/>
    </vehicle>
    <vehicle id="101" depart="40.40">
        <route edges="0:1 1:3"/>
    </vehicle>
    <vehicle id="103" depart="41.20">
        <route edges="7:3 3:1 1:0 0:2"/>
    </vehicle>
    <vehicle id="107" depart="42.80">
        <route edges="0:1"/>
    </vehicle>
    <vehicle id="108" depart="43.20">
        <route edges="3:1 1:0 0:2"/>
    </vehicle>
    <vehicle id="109" depart="43.60">
        <route edges="5:1 1:3"/>
    </vehicle>
    <vehicle id="112" depart="44.80">
        <route edges="6:5 5:1 1:0"/>
    </vehicle>
    <vehicle id="113" depart="45.20">
        <route edges="7:3 3:1 1:0 0:2"/>
    </vehicle>
    <vehicle id="117" depart="46.80">
        <route edges="3:1 1:0 0:2"/>
    </vehicle>
    <vehicle id="119" depart="47.60">
        <route edges="0:1 1:3 3:7"/>
    </vehicle>
    <vehicle id="120" depart="48.00">
        <route edges="0:1 1:3"/>
    </vehicle>
    <vehicle id="122" depart="48.80">
        <route edges="0:1 1:3"/>
    </vehicle>
    <vehicle id="125" depart="50.00">
        <route edges="2:0 0:1 1:3"/>
    </vehicle>
    <vehicle id="128" depart="51.20">
        <route edges="0:1 1:3"/>
    </vehicle>
    <vehicle id="129" depart="51.60">
        <route edges="1:0 0:2"/>
    </vehicle>
    <vehicle id="135" depart="54.00">
        <route edges="7:3 3:1 1:0 0:2"/>
    </vehicle>
    <vehicle id="137" depart="54.80">
        <route edges="2:0 0:1 1:3"/>
    </vehicle>
    <vehicle id="138" depart="55.20">
        <route edges="6:5 5:1 1:3"/>
    </vehicle>
    <vehicle id="140" depart="56.00">
        <route edges="1:3 3:7"/>
    </vehicle>
    <vehicle id="141" depart="56.40">
        <route edges="1:3 3:7"/>
    </vehicle>
    <vehicle id="144" depart="57.60">
        <route edges="7:3 3:1 1:0"/>
    </vehicle>
    <vehicle id="145" depart="58.00">
        <route edges="6:5 5:1 1:3"/>
    </vehicle>
    <vehicle id="146" depart="58.40">
        <route edges="0:1 1:3 3:7"/>
    </vehicle>
    <vehicle id="147" depart="58.80">
        <route edges="2:0 0:1 1:3 3:7"/>
    </vehicle>
    <vehicle id="148" depart="59.20">
        <route edges="1:0 0:2"/>
    </vehicle>
    <vehicle id="150" depart="60.00">
        <route edges="6:5 5:1 1:0"/>
    </vehicle>
    <vehicle id="153" depart="61.20">
        <route edges="7:3 3:1 1:5"/>
    </vehicle>
    <vehicle id="158" depart="63.20">
        <route edges="5:1 1:3 3:7"/>
    </vehicle>
    <vehicle id="161" depart="64.40">
        <route edges="7:3 3:1 1:0 0:2"/>
    </vehicle>
    <vehicle id="162" depart="64.80">
        <route edges="7:3 3:1"/>
    </vehicle>
    <vehicle id="164" depart="65.60">
        <route edges="2:0 0:1 1:5 5:6"/>
    </vehicle>
    <vehicle id="165" depart="66.00">
        <route edges="3:1"/>
    </vehicle>
    <vehicle id="166" depart="66.40">
        <route edges="6:5 5:1 1:3"/>
    </vehicle>
    <vehicle id="167" depart="66.80">
        <route edges="2:0 0:1 1:3"/>
    </vehicle>
    <vehicle id="170" depart="68.00">
        <route edges="3:1 1:0 0:2"/>
    </vehicle>
    <vehicle id="171" depart="68.40">
        <route edges="7:3 3:1 1:5 5:6"/>
    </vehicle>
    <vehicle id="174" depart="69.60">
        <route edges="0:1"/>
    </vehicle>
    <vehicle id="177" depart="70.80">
        <route edges="2:0 0:1 1:5 5:6"/>
    </vehicle>
    <vehicle id="178" depart="71.20">
        <route edges="2:0 0:1 1:3 3:7"/>
    </vehicle>
    <vehicle id="179" depart="71.60">
        <route edges="1:3"/>
    </vehicle>
    <vehicle id="181" depart="72.40">
        <route edges="2:0 0:1 1:3 3:7"/>
    </vehicle>
    <vehicle id="182" depart="72.80">
        <route edges="3:1 1:5 5:6"/>
    </vehicle>
    <vehicle id="184" depart="73.60">
        <route edges="2:0 0:1 1:3 3:7"/>
    </vehicle>
    <vehicle id="188" depart="75.20">
        <route edges="0:1 1:5 5:6"/>
    </vehicle>
    <vehicle id="191" depart="76.40">
        <route edges="7:3 3:1"/>
    </vehicle>
    <vehicle id="192" depart="76.80">
        <route edges="5:1 1:0 0:2"/>
    </vehicle>
    <vehicle id="194" depart="77.60">
        <route edges="0:1 1:3"/>
    </vehicle>
    <vehicle id="200" depart="80.00">
        <route edges="7:3 3:1 1:5 5:6"/>
    </vehicle>
    <vehicle id="202" depart="80.80">
        <route edges="7:3 3:1 1:5 5:6"/>
    </vehicle>
    <vehicle id="204" depart="81.60">
        <route edges="1:3"/>
    </vehicle>
    <vehicle id="205" depart="82.00">
        <route edges="6:5 5:1 1:3 3:7"/>
    </vehicle>
    <vehicle id="206" depart="82.40">
        <route edges="1:0 0:2"/>
    </vehicle>
    <vehicle id="207" depart="82.80">
        <route edges="1:0 0:2"/>
    </vehicle>
    <vehicle id="208" depart="83.20">
        <route edges="1:3 3:7"/>
    </vehicle>
    <vehicle id="209" depart="83.60">
        <route edges="2:0 0:1 1:3 3:7"/>
    </vehicle>
    <vehicle id="211" depart="84.40">
        <route edges="1:3 3:7"/>
    </vehicle>
    <vehicle id="212" depart="84.80">
        <route edges="7:3 3:1 1:0 0:2"/>
    </vehicle>
    <vehicle id="213" depart="85.20">
        <route edges="6:5 5:1 1:0 0:2"/>
    </vehicle>
    <vehicle id="214" depart="85.60">
        <route edges="5:1 1:0 0:2"/>
    </vehicle>
    <vehicle id="216" depart="86.40">
        <route edges="7:3 3:1 1:5"/>
    </vehicle>
    <vehicle id="217" depart="86.80">
        <route edges="5:1 1:3 3:7"/>
    </vehicle>
    <vehicle id="218" depart="87.20">
        <route edges="2:0 0:1 1:5 5:6"/>
    </vehicle>
    <vehicle id="219" depart="87.60">
        <route edges="1:0 0:2"/>
    </vehicle>
    <vehicle id="222" depart="88.80">
        <route edges="3:1 1:0 0:2"/>
    </vehicle>
    <vehicle id="224" depart="89.60">
        <route edges="1:3 3:7"/>
    </vehicle>
    <vehicle id="227" depart="90.80">
        <route edges="7:3 3:1 1:0 0:2"/>
    </vehicle>
    <vehicle id="230" depart="92.00">
        <route edges="0:1 1:3"/>
    </vehicle>
    <vehicle id="231" depart="92.40">
        <route edges="6:5 5:1 1:3"/>
    </vehicle>
    <vehicle id="232" depart="92.80">
        <route edges="1:3 3:7"/>
    </vehicle>
    <vehicle id="233" depart="93.20">
        <route edges="6:5 5:1 1:0 0:2"/>
    </vehicle>
    <vehicle id="234" depart="93.60">
        <route edges="3:1"/>
    </vehicle>
    <vehicle id="235" depart="94.00">
        <route edges="2:0 0:1 1:5"/>
    </vehicle>
    <vehicle id="236" depart="94.40">
        <route edges="7:3 3:1 1:5 5:6"/>
    </vehicle>
    <vehicle id="238" depart="95.20">
        <route edges="2:0 0:1 1:5 5:6"/>
    </vehicle>
    <vehicle id="241" depart="96.40">
        <route edges="1:3 3:7"/>
    </vehicle>
    <vehicle id="242" depart="96.80">
        <route edges="7:3 3:1 1:0"/>
    </vehicle>
    <vehicle id="244" depart="97.60">
        <route edges="7:3 3:1 1:0 0:2"/>
    </vehicle>
    <vehicle id="246" depart="98.40">
        <route edges="7:3 3:1 1:0 0:2"/>
    </vehicle>
    <vehicle id="249" depart="99.60">
        <route edges="3:1"/>
    </vehicle>
    <vehicle id="253" depart="101.20">
        <route edges="0:1 1:3"/>
    </vehicle>
    <vehicle id="256" depart="102.40">
        <route edges="6:5 5:1 1:0 0:2"/>
    </vehicle>
    <vehicle id="258" depart="103.20">
        <route edges="7:3 3:1"/>
    </vehicle>
    <vehicle id="259" depart="103.60">
        <route edges="5:1 1:3 3:7"/>
    </vehicle>
    <vehicle id="266" depart="106.40">
        <route edges="1:0 0:2"/>
    </vehicle>
    <vehicle id="269" depart="107.60">
        <route edges="1:3 3:7"/>
    </vehicle>
    <vehicle id="271" depart="108.40">
        <route edges="7:3 3:1"/>
    </vehicle>
    <vehicle id="279" depart="111.60">
        <route edges="7:3 3:1 1:0 0:2"/>
    </vehicle>
    <vehicle id="280" depart="112.00">
        <route edges="6:5 5:1 1:3 3:7"/>
    </vehicle>
    <vehicle id="283" depart="113.20">
        <route edges="5:1 1:0 0:2"/>
    </vehicle>
    <vehicle id="285" depart="114.00">
        <route edges="7:3 3:1"/>
    </vehicle>
    <vehicle id="286" depart="114.40">
        <route edges="6:5 5:1 1:0 0:2"/>
    </vehicle>
    <vehicle id="287" depart="114.80">
        <route edges="0:1"/>
    </vehicle>
    <vehicle id="290" depart="116.00">
        <route edges="2:0 0:1 1:3 3:7"/>
    </vehicle>
    <vehicle id="291" depart="116.40">
        <route edges="3:1 1:0 0:2"/>
    </vehicle>
    <vehicle id="294" depart="117.60">
        <route edges="5:1 1:3 3:7"/>
    </vehicle>
    <vehicle id="298" depart="119.20">
        <route edges="2:0 0:1"/>
    </vehicle>
    <vehicle id="300" depart="120.00">
        <route edges="7:3 3:1 1:5 5:6"/>
    </vehicle>
    <vehicle id="301" depart="120.40">
        <route edges="7:3 3:1 1:0"/>
    </vehicle>
    <vehicle id="302" depart="120.80">
        <route edges="2:0 0:1 1:3"/>
    </vehicle>
    <vehicle id="303" depart="121.20">
        <route edges="2:0 0:1"/>
    </vehicle>
    <vehicle id="304" depart="121.60">
        <route edges="0:1 1:3"/>
    </vehicle>
    <vehicle id="305" depart="122.00">
        <route edges="1:3"/>
    </vehicle>
    <vehicle id="307" depart="122.80">
        <route edges="2:0 0:1"/>
    </vehicle>
    <vehicle id="311" depart="124.40">
        <route edges="1:0 0:2"/>
    </vehicle>
    <vehicle id="312" depart="124.80">
        <route edges="1:0"/>
    </vehicle>
    <vehicle id="314" depart="125.60">
        <route edges="0:1 1:5"/>
    </vehicle>
    <vehicle id="317" depart="126.80">
        <route edges="1:3 3:7"/>
    </vehicle>
    <vehicle id="318" depart="127.20">
        <route edges="1:0"/>
    </vehicle>
    <vehicle id="319" depart="127.60">
        <route edges="1:0"/>
    </vehicle>
    <vehicle id="320" depart="128.00">
        <route edges="6:5 5:1 1:3 3:7"/>
    </vehicle>
    <vehicle id="323" depart="129.20">
        <route edges="7:3 3:1 1:5 5:6"/>
    </vehicle>
    <vehicle id="324" depart="129.60">
        <route edges="7:3 3:1 1:0"/>
    </vehicle>
    <vehicle id="325" depart="130.00">
        <route edges="6:5 5:1 1:3"/>
    </vehicle>
    <vehicle id="326" depart="130.40">
        <route edges="7:3 3:1 1:5"/>
    </vehicle>
    <vehicle id="328" depart="131.20">
        <route edges="0:1"/>
    </vehicle>
    <vehicle id="335" depart="134.00">
        <route edges="2:0 0:1 1:3"/>
    </vehicle>
    <vehicle id="336" depart="134.40">
        <route edges="0:1"/>
    </vehicle>
    <vehicle id="337" depart="134.80">
        <route edges="5:1 1:3"/>
    </vehicle>
    <vehicle id="344" depart="137.60">
        <route edges="7:3 3:1 1:0"/>
    </vehicle>
    <vehicle id="346" depart="138.40">
        <route edges="2:0 0:1"/>
    </vehicle>
    <vehicle id="350" depart="140.00">
        <route edges="6:5 5:1 1:0"/>
    </vehicle>
    <vehicle id="352" depart="140.80">
        <route edges="7:3 3:1 1:0 0:2"/>
    </vehicle>
    <vehicle id="353" depart="141.20">
        <route edges="2:0 0:1 1:3"/>
    </vehicle>
    <vehicle id="354" depart="141.60">
        <route edges="2:0 0:1"/>
    </vehicle>
    <vehicle id="355" depart="142.00">
        <route edges="0:1 1:3 3:7"/>
    </vehicle>
    <vehicle id="356" depart="142.40">
        <route edges="7:3 3:1 1:0 0:2"/>
    </vehicle>
    <vehicle id="359" depart="143.60">
        <route edges="7:3 3:1 1:0"/>
    </vehicle>
    <vehicle id="360" depart="144.00">
        <route edges="7:3 3:1 1:5 5:6"/>
    </vehicle>
    <vehicle id="361" depart="144.40">
        <route edges="3:1 1:0"/>
    </vehicle>
    <vehicle id="362" depart="144.80">
        <route edges="2:0 0:1 1:5 5:6"/>
    </vehicle>
    <vehicle id="366" depart="146.40">
        <route edges="1:3 3:7"/>
    </vehicle>
    <vehicle id="367" depart="146.80">
        <route edges="7:3 3:1 1:5 5:6"/>
    </vehicle>
    <vehicle id="368" depart="147.20">
        <route edges="6:5 5:1 1:3 3:7"/>
    </vehicle>
    <vehicle id="369" depart="147.60">
        <route edges="2:0 0:1 1:3 3:7"/>
    </vehicle>
    <vehicle id="371" depart="148.40">
        <route edges="6:5 5:1 1:0"/>
    </vehicle>
    <vehicle id="374" depart="149.60">
        <route edges="7:3 3:1"/>
    </vehicle>
    <vehicle id="379" depart="151.60">
        <route edges="6:5 5:1 1:3"/>
    </vehicle>
    <vehicle id="382" depart="152.80">
        <route edges="5:1 1:3"/>
    </vehicle>
    <vehicle id="384" depart="153.60">
        <route edges="6:5 5:1 1:0 0:2"/>
    </vehicle>
    <vehicle id="386" depart="154.40">
        <route edges="2:0 0:1 1:3 3:7"/>
    </vehicle>
    <vehicle id="387" depart="154.80">
        <route edges="1:3 3:7"/>
    </vehicle>
    <vehicle id="389" depart="155.60">
        <route edges="2:0 0:1 1:3 3:7"/>
    </vehicle>
    <vehicle id="390" depart="156.00">
        <route edges="7:3 3:1 1:0"/>
    </vehicle>
    <vehicle id="391" depart="156.40">
        <route edges="2:0 0:1 1:5 5:6"/>
    </vehicle>
    <vehicle id="392" depart="156.80">
        <route edges="7:3 3:1 1:0 0:2"/>
    </vehicle>
    <vehicle id="393" depart="157.20">
        <route edges="0:1 1:3 3:7"/>
    </vehicle>
    <vehicle id="394" depart="157.60">
        <route edges="7:3 3:1 1:0"/>
    </vehicle>
    <vehicle id="397" depart="158.80">
        <route edges="0:1 1:3 3:7"/>
    </vehicle>
    <vehicle id="399" depart="159.60">
        <route edges="1:0 0:2"/>
    </vehicle>
    <vehicle id="401" depart="160.40">
        <route edges="1:0 0:2"/>
    </vehicle>
    <vehicle id="404" depart="161.60">
        <route edges="1:3"/>
    </vehicle>
    <vehicle id="408" depart="163.20">
        <route edges="0:1"/>
    </vehicle>
    <vehicle id="410" depart="164.00">
        <route edges="5:1 1:0 0:2"/>
    </vehicle>
    <vehicle id="411" depart="164.40">
        <route edges="6:5 5:1"/>
    </vehicle>
    <vehicle id="413" depart="165.20">
        <route edges="2:0 0:1 1:5"/>
    </vehicle>
    <vehicle id="415" depart="166.00">
        <route edges="2:0 0:1"/>
    </vehicle>
    <vehicle id="417" depart="166.80">
        <route edges="2:0 0:1 1:5 5:6"/>
    </vehicle>
    <vehicle id="419" depart="167.60">
        <route edges="6:5 5:1 1:0 0:2"/>
    </vehicle>
    <vehicle id="423" depart="169.20">
        <route edges="2:0 0:1 1:3 3:7"/>
    </vehicle>
    <vehicle id="424" depart="169.60">
        <route edges="6:5 5:1 1:0 0:2"/>
    </vehicle>
    <vehicle id="425" depart="170.00">
        <route edges="7:3 3:1 1:0"/>
    </vehicle>
    <vehicle id="426" depart="170.40">
        <route edges="7:3 3:1 1:0 0:2"/>
    </vehicle>
    <vehicle id="432" depart="172.80">
        <route edges="3:1 1:0 0:2"/>
    </vehicle>
    <vehicle id="434" depart="173.60">
        <route edges="7:3 3:1"/>
    </vehicle>
    <vehicle id="435" depart="174.00">
        <route edges="2:0 0:1 1:3"/>
    </vehicle>
    <vehicle id="436" depart="174.40">
        <route edges="7:3 3:1"/>
    </vehicle>
    <vehicle id="439" depart="175.60">
        <route edges="7:3 3:1 1:5"/>
    </vehicle>
    <vehicle id="440" depart="176.00">
        <route edges="2:0 0:1 1:3 3:7"/>
    </vehicle>
    <vehicle id="443" depart="177.20">
        <route edges="0:1 1:3 3:7"/>
    </vehicle>
    <vehicle id="446" depart="178.40">
        <route edges="0:1 1:3"/>
    </vehicle>
    <vehicle id="449" depart="179.60">
        <route edges="7:3 3:1 1:5"/>
    </vehicle>
    <vehicle id="453" depart="181.20">
        <route edges="7:3 3:1 1:0 0:2"/>
    </vehicle>
    <vehicle id="454" depart="181.60">
        <route edges="2:0 0:1 1:3 3:7"/>
    </vehicle>
    <vehicle id="455" depart="182.00">
        <route edges="2:0 0:1 1:5 5:6"/>
    </vehicle>
    <vehicle id="457" depart="182.80">
        <route edges="2:0 0:1"/>
    </vehicle>
    <vehicle id="465" depart="186.00">
        <route edges="7:3 3:1 1:5"/>
    </vehicle>
    <vehicle id="467" depart="186.80">
        <route edges="2:0 0:1 1:3 3:7"/>
    </vehicle>
    <vehicle id="468" depart="187.20">
        <route edges="1:0"/>
    </vehicle>
    <vehicle id="469" depart="187.60">
        <route edges="7:3 3:1 1:0 0:2"/>
    </vehicle>
    <vehicle id="471" depart="188.40">
        <route edges="1:3 3:7"/>
    </vehicle>
    <vehicle id="472" depart="188.80">
        <route edges="1:0 0:2"/>
    </vehicle>
    <vehicle id="473" depart="189.20">
        <route edges="7:3 3:1 1:0 0:2"/>
    </vehicle>
    <vehicle id="474" depart="189.60">
        <route edges="0:1 1:5 5:6"/>
    </vehicle>
    <vehicle id="478" depart="191.20">
        <route edges="7:3 3:1 1:0"/>
    </vehicle>
    <vehicle id="482" depart="192.80">
        <route edges="3:1"/>
    </vehicle>
    <vehicle id="484" depart="193.60">
        <route edges="3:1 1:0"/>
    </vehicle>
    <vehicle id="486" depart="194.40">
        <route edges="7:3 3:1 1:0 0:2"/>
    </vehicle>
    <vehicle id="489" depart="195.60">
        <route edges="6:5 5:1 1:0 0:2"/>
    </vehicle>
    <vehicle id="491" depart="196.40">
        <route edges="7:3 3:1 1:0 0:2"/>
    </vehicle>
    <vehicle id="496" depart="198.40">
        <route edges="2:0 0:1 1:3 3:7"/>
    </vehicle>
    <vehicle id="498" depart="199.20">
        <route edges="0:1 1:5"/>
    </vehicle>
    <vehicle id="500" depart="200.00">
        <route edges="6:5 5:1 1:0 0:2"/>
    </vehicle>
    <vehicle id="501" depart="200.40">
        <route edges="3:1 1:5"/>
    </vehicle>
    <vehicle id="504" depart="201.60">
        <route edges="2:0 0:1 1:3 3:7"/>
    </vehicle>
    <vehicle id="508" depart="203.20">
        <route edges="0:1 1:5 5:6"/>
    </vehicle>
    <vehicle id="509" depart="203.60">
        <route edges="6:5 5:1 1:3"/>
    </vehicle>
    <vehicle id="511" depart="204.40">
        <route edges="3:1 1:0 0:2"/>
    </vehicle>
    <vehicle id="514" depart="205.60">
        <route edges="7:3 3:1 1:0 0:2"/>
    </vehicle>
    <vehicle id="516" depart="206.40">
        <route edges="0:1 1:5 5:6"/>
    </vehicle>
    <vehicle id="517" depart="206.80">
        <route edges="7:3 3:1 1:0 0:2"/>
    </vehicle>
    <vehicle id="519" depart="207.60">
        <route edges="0:1 1:3 3:7"/>
    </vehicle>
    <vehicle id="525" depart="210.00">
        <route edges="1:0"/>
    </vehicle>
    <vehicle id="527" depart="210.80">
        <route edges="7:3 3:1"/>
    </vehicle>
    <vehicle id="528" depart="211.20">
        <route edges="0:1"/>
    </vehicle>
    <vehicle id="530" depart="212.00">
        <route edges="6:5 5:1 1:3 3:7"/>
    </vehicle>
    <vehicle id="531" depart="212.40">
        <route edges="2:0 0:1 1:3"/>
    </vehicle>
    <vehicle id="533" depart="213.20">
        <route edges="2:0 0:1 1:3"/>
    </vehicle>
    <vehicle id="535" depart="214.00">
        <route edges="6:5 5:1 1:3 3:7"/>
    </vehicle>
    <vehicle id="536" depart="214.40">
        <route edges="1:3 3:7"/>
    </vehicle>
    <vehicle id="537" depart="214.80">
        <route edges="2:0 0:1"/>
    </vehicle>
    <vehicle id="539" depart="215.60">
        <route edges="0:1 1:3 3:7"/>
    </vehicle>
    <vehicle id="540" depart="216.00">
        <route edges="6:5 5:1 1:3 3:7"/>
    </vehicle>
    <vehicle id="541" depart="216.40">
        <route edges="2:0 0:1 1:5 5:6"/>
    </vehicle>
    <vehicle id="542" depart="216.80">
        <route edges="7:3 3:1 1:0 0:2"/>
    </vehicle>
    <vehicle id="545" depart="218.00">
        <route edges="1:5"/>
    </vehicle>
    <vehicle id="546" depart="218.40">
        <route edges="6:5 5:1 1:3"/>
    </vehicle>
    <vehicle id="547" depart="218.80">
        <route edges="7:3 3:1 1:0"/>
    </vehicle>
    <vehicle id="548" depart="219.20">
        <route edges="2:0 0:1 1:3 3:7"/>
    </vehicle>
    <vehicle id="549" depart="219.60">
        <route edges="7:3 3:1 1:0 0:2"/>
    </vehicle>
    <vehicle id="551" depart="220.40">
        <route edges="3:1"/>
    </vehicle>
    <vehicle id="552" depart="220.80">
        <route edges="7:3 3:1 1:0 0:2"/>
    </vehicle>
    <vehicle id="554" depart="221.60">
        <route edges="2:0 0:1 1:3 3:7"/>
    </vehicle>
    <vehicle id="555" depart="222.00">
        <route edges="7:3 3:1 1:0"/>
    </vehicle>
    <vehicle id="556" depart="222.40">
        <route edges="2:0 0:1 1:3 3:7"/>
    </vehicle>
    <vehicle id="557" depart="222.80">
        <route edges="6:5 5:1 1:3"/>
    </vehicle>
    <vehicle id="561" depart="224.40">
        <route edges="1:0 0:2"/>
    </vehicle>
    <vehicle id="564" depart="225.60">
        <route edges="7:3 3:1"/>
    </vehicle>
    <vehicle id="565" depart="226.00">
        <route edges="7:3 3:1 1:0 0:2"/>
    </vehicle>
    <vehicle id="568" depart="227.20">
        <route edges="2:0 0:1 1:3 3:7"/>
    </vehicle>
    <vehicle id="569" depart="227.60">
        <route edges="1:3 3:7"/>
    </vehicle>
    <vehicle id="570" depart="228.00">
        <route edges="3:1 1:5 5:6"/>
    </vehicle>
    <vehicle id="572" depart="228.80">
        <route edges="2:0 0:1 1:5 5:6"/>
    </vehicle>
    <vehicle id="573" depart="229.20">
        <route edges="7:3 3:1 1:0 0:2"/>
    </vehicle>
    <vehicle id="576" depart="230.40">
        <route edges="2:0 0:1 1:5"/>
    </vehicle>
    <vehicle id="579" depart="231.60">
        <route edges="3:1 1:5"/>
    </vehicle>
    <vehicle id="580" depart="232.00">
        <route edges="1:0"/>
    </vehicle>
    <vehicle id="589" depart="235.60">
        <route edges="7:3 3:1 1:5"/>
    </vehicle>
    <vehicle id="591" depart="236.40">
        <route edges="1:3"/>
    </vehicle>
    <vehicle id="592" depart="236.80">
        <route edges="3:1"/>
    </vehicle>
    <vehicle id="595" depart="238.00">
        <route edges="1:3 3:7"/>
    </vehicle>
    <vehicle id="596" depart="238.40">
        <route edges="2:0 0:1 1:3 3:7"/>
    </vehicle>
    <vehicle id="598" depart="239.20">
        <route edges="2:0 0:1 1:5"/>
    </vehicle>
    <vehicle id="599" depart="239.60">
        <route edges="7:3 3:1"/>
    </vehicle>
    <vehicle id="603" depart="241.20">
        <route edges="7:3 3:1 1:0 0:2"/>
    </vehicle>
    <vehicle id="604" depart="241.60">
        <route edges="6:5 5:1 1:0"/>
    </vehicle>
    <vehicle id="605" depart="242.00">
        <route edges="6:5 5:1 1:0"/>
    </vehicle>
    <vehicle id="609" depart="243.60">
        <route edges="3:1 1:0 0:2"/>
    </vehicle>
    <vehicle id="610" depart="244.00">
        <route edges="7:3 3:1 1:0 0:2"/>
    </vehicle>
    <vehicle id="611" depart="244.40">
        <route edges="3:1 1:0 0:2"/>
    </vehicle>
    <vehicle id="612" depart="244.80">
        <route edges="1:3 3:7"/>
    </vehicle>
    <vehicle id="615" depart="246.00">
        <route edges="2:0 0:1 1:3"/>
    </vehicle>
    <vehicle id="620" depart="248.00">
        <route edges="7:3 3:1"/>
    </vehicle>
    <vehicle id="621" depart="248.40">
        <route edges="1:0"/>
    </vehicle>
    <vehicle id="625" depart="250.00">
        <route edges="2:0 0:1 1:3"/>
    </vehicle>
    <vehicle id="628" depart="251.20">
        <route edges="0:1 1:5"/>
    </vehicle>
    <vehicle id="629" depart="251.60">
        <route edges="7:3 3:1 1:0 0:2"/>
    </vehicle>
    <vehicle id="630" depart="252.00">
        <route edges="7:3 3:1"/>
    </vehicle>
    <vehicle id="631" depart="252.40">
        <route edges="3:1 1:0 0:2"/>
    </vehicle>
    <vehicle id="632" depart="252.80">
        <route edges="6:5 5:1 1:3"/>
    </vehicle>
    <vehicle id="633" depart="253.20">
        <route edges="0:1 1:3 3:7"/>
    </vehicle>
    <vehicle id="636" depart="254.40">
        <route edges="0:1 1:5"/>
    </vehicle>
    <vehicle id="637" depart="254.80">
        <route edges="0:1"/>
    </vehicle>
    <vehicle id="640" depart="256.00">
        <route edges="6:5 5:1 1:0 0:2"/>
    </vehicle>
    <vehicle id="641" depart="256.40">
        <route edges="2:0 0:1 1:3 3:7"/>
    </vehicle>
    <vehicle id="642" depart="256.80">
        <route edges="7:3 3:1"/>
    </vehicle>
    <vehicle id="643" depart="257.20">
        <route edges="2:0 0:1"/>
    </vehicle>
    <vehicle id="644" depart="257.60">
        <route edges="7:3 3:1 1:5 5:6"/>
    </vehicle>
    <vehicle id="645" depart="258.00">
        <route edges="0:1"/>
    </vehicle>
    <vehicle id="646" depart="258.40">
        <route edges="1:3"/>
    </vehicle>
    <vehicle id="647" depart="258.80">
        <route edges="2:0 0:1 1:5 5:6"/>
    </vehicle>
    <vehicle id="652" depart="260.80">
        <route edges="0:1 1:3 3:7"/>
    </vehicle>
    <vehicle id="654" depart="261.60">