<?xml version="1.0" encoding="UTF-8"?>

<!-- generated on Thu Feb 13 12:38:25 2014 by SUMO duarouter Version 0.18.0
<?xml version="1.0" encoding="UTF-8"?>

<configuration xmlns:xsi="http://www.w3.org/2001/XMLSchema-instance" xsi:noNamespaceSchemaLocation="http://sumo.sf.net/xsd/duarouterConfiguration.xsd">

    <input>
        <net-file value="simpleT.net.xml"/>
        <trip-files value="experimentos/simpleT.p0.1.8.trips.xml"/>
    </input>

    <output>
        <output-file value="experimentos/simpleT.p0.1.8.rou.xml"/>
    </output>

    <processing>
        <ignore-errors value="true"/>
    </processing>

    <random_number>
        <random value="true"/>
    </random_number>

</configuration>
-->

<routes xmlns:xsi="http://www.w3.org/2001/XMLSchema-instance" xsi:noNamespaceSchemaLocation="http://sumo.sf.net/xsd/routes_file.xsd">
    <vehicle id="0" depart="0.00">
        <route edges="3:1 1:0 0:2"/>
    </vehicle>
    <vehicle id="1" depart="0.10">
        <route edges="2:0 0:1"/>
    </vehicle>
    <vehicle id="3" depart="0.30">
        <route edges="7:3 3:1 1:0 0:2"/>
    </vehicle>
    <vehicle id="4" depart="0.40">
        <route edges="6:5 5:1 1:3"/>
    </vehicle>
    <vehicle id="5" depart="0.50">
        <route edges="1:0"/>
    </vehicle>
    <vehicle id="9" depart="0.90">
        <route edges="7:3 3:1"/>
    </vehicle>
    <vehicle id="10" depart="1.00">
        <route edges="7:3 3:1 1:5 5:6"/>
    </vehicle>
    <vehicle id="11" depart="1.10">
        <route edges="7:3 3:1 1:0 0:2"/>
    </vehicle>
    <vehicle id="13" depart="1.30">
        <route edges="7:3 3:1 1:0 0:2"/>
    </vehicle>
    <vehicle id="14" depart="1.40">
        <route edges="2:0 0:1 1:5"/>
    </vehicle>
    <vehicle id="16" depart="1.60">
        <route edges="1:3 3:7"/>
    </vehicle>
    <vehicle id="17" depart="1.70">
        <route edges="6:5 5:1 1:3 3:7"/>
    </vehicle>
    <vehicle id="18" depart="1.80">
        <route edges="0:1 1:5 5:6"/>
    </vehicle>
    <vehicle id="19" depart="1.90">
        <route edges="3:1"/>
    </vehicle>
    <vehicle id="22" depart="2.20">
        <route edges="3:1"/>
    </vehicle>
    <vehicle id="24" depart="2.40">
        <route edges="0:1 1:5 5:6"/>
    </vehicle>
    <vehicle id="26" depart="2.60">
        <route edges="7:3 3:1 1:0 0:2"/>
    </vehicle>
    <vehicle id="27" depart="2.70">
        <route edges="3:1 1:0"/>
    </vehicle>
    <vehicle id="28" depart="2.80">
        <route edges="5:1 1:0"/>
    </vehicle>
    <vehicle id="29" depart="2.90">
        <route edges="2:0 0:1"/>
    </vehicle>
    <vehicle id="31" depart="3.10">
        <route edges="6:5 5:1"/>
    </vehicle>
    <vehicle id="32" depart="3.20">
        <route edges="7:3 3:1 1:5"/>
    </vehicle>
    <vehicle id="33" depart="3.30">
        <route edges="7:3 3:1 1:0"/>
    </vehicle>
    <vehicle id="38" depart="3.80">
        <route edges="2:0 0:1 1:3"/>
    </vehicle>
    <vehicle id="39" depart="3.90">
        <route edges="3:1 1:0 0:2"/>
    </vehicle>
    <vehicle id="43" depart="4.30">
        <route edges="1:5"/>
    </vehicle>
    <vehicle id="47" depart="4.70">
        <route edges="1:3 3:7"/>
    </vehicle>
    <vehicle id="48" depart="4.80">
        <route edges="3:1 1:5"/>
    </vehicle>
    <vehicle id="53" depart="5.30">
        <route edges="7:3 3:1 1:0"/>
    </vehicle>
    <vehicle id="54" depart="5.40">
        <route edges="7:3 3:1 1:0"/>
    </vehicle>
    <vehicle id="55" depart="5.50">
        <route edges="7:3 3:1 1:5"/>
    </vehicle>
    <vehicle id="57" depart="5.70">
        <route edges="3:1"/>
    </vehicle>
    <vehicle id="60" depart="6.00">
        <route edges="1:0 0:2"/>
    </vehicle>
    <vehicle id="61" depart="6.10">
        <route edges="2:0 0:1 1:3"/>
    </vehicle>
    <vehicle id="62" depart="6.20">
        <route edges="2:0 0:1 1:3 3:7"/>
    </vehicle>
    <vehicle id="64" depart="6.40">
        <route edges="1:0 0:2"/>
    </vehicle>
    <vehicle id="65" depart="6.50">
        <route edges="3:1 1:0 0:2"/>
    </vehicle>
    <vehicle id="69" depart="6.90">
        <route edges="5:1 1:0 0:2"/>
    </vehicle>
    <vehicle id="70" depart="7.00">
        <route edges="0:1 1:3 3:7"/>
    </vehicle>
    <vehicle id="71" depart="7.10">
        <route edges="7:3 3:1 1:0 0:2"/>
    </vehicle>
    <vehicle id="72" depart="7.20">
        <route edges="6:5 5:1 1:3 3:7"/>
    </vehicle>
    <vehicle id="74" depart="7.40">
        <route edges="5:1 1:3 3:7"/>
    </vehicle>
    <vehicle id="76" depart="7.60">
        <route edges="0:1 1:5"/>
    </vehicle>
    <vehicle id="77" depart="7.70">
        <route edges="7:3 3:1 1:5"/>
    </vehicle>
    <vehicle id="79" depart="7.90">
        <route edges="7:3 3:1 1:0 0:2"/>
    </vehicle>
    <vehicle id="82" depart="8.20">
        <route edges="0:1 1:5"/>
    </vehicle>
    <vehicle id="83" depart="8.30">
        <route edges="7:3 3:1"/>
    </vehicle>
    <vehicle id="84" depart="8.40">
        <route edges="0:1 1:3 3:7"/>
    </vehicle>
    <vehicle id="85" depart="8.50">
        <route edges="6:5 5:1 1:3"/>
    </vehicle>
    <vehicle id="86" depart="8.60">
        <route edges="2:0 0:1 1:3 3:7"/>
    </vehicle>
    <vehicle id="90" depart="9.00">
        <route edges="2:0 0:1"/>
    </vehicle>
    <vehicle id="92" depart="9.20">
        <route edges="2:0 0:1 1:3 3:7"/>
    </vehicle>
    <vehicle id="93" depart="9.30">
        <route edges="1:0"/>
    </vehicle>
    <vehicle id="97" depart="9.70">
        <route edges="3:1 1:0 0:2"/>
    </vehicle>
    <vehicle id="98" depart="9.80">
        <route edges="2:0 0:1"/>
    </vehicle>
    <vehicle id="100" depart="10.00">
        <route edges="3:1 1:0"/>
    </vehicle>
    <vehicle id="101" depart="10.10">
        <route edges="2:0 0:1 1:5"/>
    </vehicle>
    <vehicle id="102" depart="10.20">
        <route edges="3:1 1:0 0:2"/>
    </vehicle>
    <vehicle id="103" depart="10.30">
        <route edges="7:3 3:1 1:5"/>
    </vehicle>
    <vehicle id="107" depart="10.70">
        <route edges="3:1 1:0 0:2"/>
    </vehicle>
    <vehicle id="108" depart="10.80">
        <route edges="2:0 0:1 1:5"/>
    </vehicle>
    <vehicle id="109" depart="10.90">
        <route edges="6:5 5:1 1:3 3:7"/>
    </vehicle>
    <vehicle id="110" depart="11.00">
        <route edges="1:0"/>
    </vehicle>
    <vehicle id="112" depart="11.20">
        <route edges="6:5 5:1 1:0"/>
    </vehicle>
    <vehicle id="113" depart="11.30">
        <route edges="3:1 1:0 0:2"/>
    </vehicle>
    <vehicle id="114" depart="11.40">
        <route edges="7:3 3:1"/>
    </vehicle>
    <vehicle id="119" depart="11.90">
        <route edges="1:0"/>
    </vehicle>
    <vehicle id="121" depart="12.10">
        <route edges="7:3 3:1 1:5 5:6"/>
    </vehicle>
    <vehicle id="122" depart="12.20">
        <route edges="2:0 0:1"/>
    </vehicle>
    <vehicle id="125" depart="12.50">
        <route edges="2:0 0:1"/>
    </vehicle>
    <vehicle id="127" depart="12.70">
        <route edges="6:5 5:1 1:3 3:7"/>
    </vehicle>
    <vehicle id="134" depart="13.40">
        <route edges="6:5 5:1 1:3 3:7"/>
    </vehicle>
    <vehicle id="136" depart="13.60">
        <route edges="6:5 5:1 1:0 0:2"/>
    </vehicle>
    <vehicle id="143" depart="14.30">
        <route edges="6:5 5:1 1:0 0:2"/>
    </vehicle>
    <vehicle id="144" depart="14.40">
        <route edges="2:0 0:1 1:3 3:7"/>
    </vehicle>
    <vehicle id="146" depart="14.60">
        <route edges="7:3 3:1"/>
    </vehicle>
    <vehicle id="147" depart="14.70">
        <route edges="0:1 1:3 3:7"/>
    </vehicle>
    <vehicle id="148" depart="14.80">
        <route edges="7:3 3:1 1:0 0:2"/>
    </vehicle>
    <vehicle id="150" depart="15.00">
        <route edges="6:5 5:1 1:0 0:2"/>
    </vehicle>
    <vehicle id="151" depart="15.10">
        <route edges="7:3 3:1 1:0"/>
    </vehicle>
    <vehicle id="152" depart="15.20">
        <route edges="2:0 0:1 1:3 3:7"/>
    </vehicle>
    <vehicle id="153" depart="15.30">
        <route edges="7:3 3:1"/>
    </vehicle>
    <vehicle id="155" depart="15.50">
        <route edges="6:5 5:1 1:0 0:2"/>
    </vehicle>
    <vehicle id="156" depart="15.60">
        <route edges="3:1 1:0"/>
    </vehicle>
    <vehicle id="157" depart="15.70">
        <route edges="2:0 0:1 1:5"/>
    </vehicle>
    <vehicle id="158" depart="15.80">
        <route edges="1:0 0:2"/>
    </vehicle>
    <vehicle id="159" depart="15.90">
        <route edges="3:1 1:0 0:2"/>
    </vehicle>
    <vehicle id="161" depart="16.10">
        <route edges="7:3 3:1"/>
    </vehicle>
    <vehicle id="166" depart="16.60">
        <route edges="5:1 1:3"/>
    </vehicle>
    <vehicle id="167" depart="16.70">
        <route edges="7:3 3:1 1:0 0:2"/>
    </vehicle>
    <vehicle id="168" depart="16.80">
        <route edges="1:3 3:7"/>
    </vehicle>
    <vehicle id="170" depart="17.00">
        <route edges="6:5 5:1 1:3 3:7"/>
    </vehicle>
    <vehicle id="171" depart="17.10">
        <route edges="2:0 0:1 1:3 3:7"/>
    </vehicle>
    <vehicle id="176" depart="17.60">
        <route edges="3:1 1:0"/>
    </vehicle>
    <vehicle id="177" depart="17.70">
        <route edges="2:0 0:1 1:3"/>
    </vehicle>
    <vehicle id="178" depart="17.80">
        <route edges="2:0 0:1"/>
    </vehicle>
    <vehicle id="182" depart="18.20">
        <route edges="7:3 3:1 1:5 5:6"/>
    </vehicle>
    <vehicle id="183" depart="18.30">
        <route edges="2:0 0:1"/>
    </vehicle>
    <vehicle id="184" depart="18.40">
        <route edges="3:1 1:5 5:6"/>
    </vehicle>
    <vehicle id="186" depart="18.60">
        <route edges="2:0 0:1 1:3 3:7"/>
    </vehicle>
    <vehicle id="188" depart="18.80">
        <route edges="3:1"/>
    </vehicle>
    <vehicle id="189" depart="18.90">
        <route edges="7:3 3:1"/>
    </vehicle>
    <vehicle id="192" depart="19.20">
        <route edges="1:0"/>
    </vehicle>
    <vehicle id="193" depart="19.30">
        <route edges="5:1 1:0 0:2"/>
    </vehicle>
    <vehicle id="196" depart="19.60">
        <route edges="7:3 3:1 1:0 0:2"/>
    </vehicle>
    <vehicle id="197" depart="19.70">
        <route edges="0:1 1:5"/>
    </vehicle>
    <vehicle id="205" depart="20.50">
        <route edges="2:0 0:1 1:3"/>
    </vehicle>
    <vehicle id="208" depart="20.80">
        <route edges="6:5 5:1 1:0 0:2"/>
    </vehicle>
    <vehicle id="209" depart="20.90">
        <route edges="3:1 1:5 5:6"/>
    </vehicle>
    <vehicle id="214" depart="21.40">
        <route edges="2:0 0:1 1:3 3:7"/>
    </vehicle>
    <vehicle id="216" depart="21.60">
        <route edges="3:1 1:0"/>
    </vehicle>
    <vehicle id="217" depart="21.70">
        <route edges="3:1 1:0"/>
    </vehicle>
    <vehicle id="222" depart="22.20">
        <route edges="7:3 3:1 1:0"/>
    </vehicle>
    <vehicle id="224" depart="22.40">
        <route edges="1:0 0:2"/>
    </vehicle>
    <vehicle id="225" depart="22.50">
        <route edges="6:5 5:1 1:0"/>
    </vehicle>
    <vehicle id="227" depart="22.70">
        <route edges="7:3 3:1 1:5 5:6"/>
    </vehicle>
    <vehicle id="230" depart="23.00">
        <route edges="5:1 1:3 3:7"/>
    </vehicle>
    <vehicle id="232" depart="23.20">
        <route edges="0:1 1:3 3:7"/>
    </vehicle>
    <vehicle id="233" depart="23.30">
        <route edges="7:3 3:1 1:0 0:2"/>
    </vehicle>
    <vehicle id="235" depart="23.50">
        <route edges="6:5 5:1 1:3"/>
    </vehicle>
    <vehicle id="239" depart="23.90">
        <route edges="2:0 0:1 1:5"/>
    </vehicle>
    <vehicle id="241" depart="24.10">
        <route edges="2:0 0:1 1:5 5:6"/>
    </vehicle>
    <vehicle id="243" depart="24.30">
        <route edges="7:3 3:1"/>
    </vehicle>
    <vehicle id="244" depart="24.40">
        <route edges="3:1 1:5"/>
    </vehicle>
    <vehicle id="245" depart="24.50">
        <route edges="7:3 3:1 1:0 0:2"/>
    </vehicle>
    <vehicle id="246" depart="24.60">
        <route edges="1:0 0:2"/>
    </vehicle>
    <vehicle id="247" depart="24.70">
        <route edges="7:3 3:1 1:0"/>
    </vehicle>
    <vehicle id="249" depart="24.90">
        <route edges="2:0 0:1 1:3"/>
    </vehicle>
    <vehicle id="252" depart="25.20">
        <route edges="0:1"/>
    </vehicle>
    <vehicle id="253" depart="25.30">
        <route edges="1:0 0:2"/>
    </vehicle>
    <vehicle id="255" depart="25.50">
        <route edges="3:1 1:0 0:2"/>
    </vehicle>
    <vehicle id="256" depart="25.60">
        <route edges="2:0 0:1 1:5 5:6"/>
    </vehicle>
    <vehicle id="269" depart="26.90">
        <route edges="6:5 5:1 1:3"/>
    </vehicle>
    <vehicle id="271" depart="27.10">
        <route edges="7:3 3:1"/>
    </vehicle>
    <vehicle id="273" depart="27.30">
        <route edges="2:0 0:1 1:3 3:7"/>
    </vehicle>
    <vehicle id="274" depart="27.40">
        <route edges="2:0 0:1 1:3"/>
    </vehicle>
    <vehicle id="277" depart="27.70">
        <route edges="3:1 1:5 5:6"/>
    </vehicle>
    <vehicle id="278" depart="27.80">
        <route edges="1:3"/>
    </vehicle>
    <vehicle id="279" depart="27.90">
        <route edges="7:3 3:1 1:0 0:2"/>
    </vehicle>
    <vehicle id="280" depart="28.00">
        <route edges="2:0 0:1 1:3 3:7"/>
    </vehicle>
    <vehicle id="285" depart="28.50">
        <route edges="5:1 1:3 3:7"/>
    </vehicle>
    <vehicle id="287" depart="28.70">
        <route edges="1:3 3:7"/>
    </vehicle>
    <vehicle id="289" depart="28.90">
        <route edges="1:0 0:2"/>
    </vehicle>
    <vehicle id="292" depart="29.20">
        <route edges="6:5 5:1 1:3"/>
    </vehicle>
    <vehicle id="293" depart="29.30">
        <route edges="7:3 3:1 1:0"/>
    </vehicle>
    <vehicle id="294" depart="29.40">
        <route edges="1:0"/>
    </vehicle>
    <vehicle id="296" depart="29.60">
        <route edges="3:1 1:0 0:2"/>
    </vehicle>
    <vehicle id="301" depart="30.10">
        <route edges="5:1 1:0 0:2"/>
    </vehicle>
    <vehicle id="303" depart="30.30">
        <route edges="1:0 0:2"/>
    </vehicle>
    <vehicle id="305" depart="30.50">
        <route edges="1:0 0:2"/>
    </vehicle>
    <vehicle id="307" depart="30.70">
        <route edges="3:1 1:0 0:2"/>
    </vehicle>
    <vehicle id="308" depart="30.80">
        <route edges="2:0 0:1 1:3 3:7"/>
    </vehicle>
    <vehicle id="311" depart="31.10">
        <route edges="6:5 5:1 1:3 3:7"/>
    </vehicle>
    <vehicle id="312" depart="31.20">
        <route edges="5:1 1:3"/>
    </vehicle>
    <vehicle id="314" depart="31.40">
        <route edges="6:5 5:1 1:3 3:7"/>
    </vehicle>
    <vehicle id="316" depart="31.60">
        <route edges="0:1"/>
    </vehicle>
    <vehicle id="317" depart="31.70">
        <route edges="2:0 0:1 1:3 3:7"/>
    </vehicle>
    <vehicle id="318" depart="31.80">
        <route edges="3:1 1:0 0:2"/>
    </vehicle>
    <vehicle id="319" depart="31.90">
        <route edges="7:3 3:1 1:0 0:2"/>
    </vehicle>
    <vehicle id="320" depart="32.00">
        <route edges="3:1 1:0"/>
    </vehicle>
    <vehicle id="321" depart="32.10">
        <route edges="7:3 3:1 1:0"/>
    </vehicle>
    <vehicle id="323" depart="32.30">
        <route edges="0:1 1:3 3:7"/>
    </vehicle>
    <vehicle id="326" depart="32.60">
        <route edges="1:5 5:6"/>
    </vehicle>
    <vehicle id="327" depart="32.70">
        <route edges="2:0 0:1 1:5 5:6"/>
    </vehicle>
    <vehicle id="329" depart="32.90">
        <route edges="6:5 5:1 1:0 0:2"/>
    </vehicle>
    <vehicle id="330" depart="33.00">
        <route edges="2:0 0:1"/>
    </vehicle>
    <vehicle id="331" depart="33.10">
        <route edges="7:3 3:1 1:0 0:2"/>
    </vehicle>
    <vehicle id="332" depart="33.20">
        <route edges="1:0 0:2"/>
    </vehicle>
    <vehicle id="333" depart="33.30">
        <route edges="0:1 1:5"/>
    </vehicle>
    <vehicle id="334" depart="33.40">
        <route edges="2:0 0:1 1:5 5:6"/>
    </vehicle>
    <vehicle id="335" depart="33.50">
        <route edges="6:5 5:1 1:0 0:2"/>
    </vehicle>
    <vehicle id="336" depart="33.60">
        <route edges="2:0 0:1 1:5 5:6"/>
    </vehicle>
    <vehicle id="337" depart="33.70">
        <route edges="7:3 3:1 1:0 0:2"/>
    </vehicle>
    <vehicle id="339" depart="33.90">
        <route edges="7:3 3:1 1:0 0:2"/>
    </vehicle>
    <vehicle id="342" depart="34.20">
        <route edges="7:3 3:1 1:0 0:2"/>
    </vehicle>
    <vehicle id="343" depart="34.30">
        <route edges="1:3 3:7"/>
    </vehicle>
    <vehicle id="344" depart="34.40">
        <route edges="2:0 0:1 1:3 3:7"/>
    </vehicle>
    <vehicle id="346" depart="34.60">
        <route edges="7:3 3:1"/>
    </vehicle>
    <vehicle id="348" depart="34.80">
        <route edges="7:3 3:1 1:0 0:2"/>
    </vehicle>
    <vehicle id="353" depart="35.30">
        <route edges="0:1 1:3"/>
    </vehicle>
    <vehicle id="354" depart="35.40">
        <route edges="7:3 3:1 1:0 0:2"/>
    </vehicle>
    <vehicle id="355" depart="35.50">
        <route edges="7:3 3:1"/>
    </vehicle>
    <vehicle id="357" depart="35.70">
        <route edges="5:1 1:3"/>
    </vehicle>
    <vehicle id="359" depart="35.90">
        <route edges="2:0 0:1 1:5 5:6"/>
    </vehicle>
    <vehicle id="360" depart="36.00">
        <route edges="3:1 1:0"/>
    </vehicle>
    <vehicle id="361" depart="36.10">
        <route edges="1:0"/>
    </vehicle>
    <vehicle id="362" depart="36.20">
        <route edges="2:0 0:1"/>
    </vehicle>
    <vehicle id="363" depart="36.30">
        <route edges="2:0 0:1 1:3 3:7"/>
    </vehicle>
    <vehicle id="364" depart="36.40">
        <route edges="5:1 1:3"/>
    </vehicle>
    <vehicle id="365" depart="36.50">
        <route edges="0:1 1:5 5:6"/>
    </vehicle>
    <vehicle id="367" depart="36.70">
        <route edges="1:3 3:7"/>
    </vehicle>
    <vehicle id="369" depart="36.90">
        <route edges="7:3 3:1 1:0 0:2"/>
    </vehicle>
    <vehicle id="370" depart="37.00">
        <route edges="1:3 3:7"/>
    </vehicle>
    <vehicle id="372" depart="37.20">
        <route edges="6:5 5:1 1:0 0:2"/>
    </vehicle>
    <vehicle id="373" depart="37.30">
        <route edges="1:3 3:7"/>
    </vehicle>
    <vehicle id="374" depart="37.40">
        <route edges="6:5 5:1 1:3 3:7"/>
    </vehicle>
    <vehicle id="375" depart="37.50">
        <route edges="5:1 1:3"/>
    </vehicle>
    <vehicle id="376" depart="37.60">
        <route edges="1:3 3:7"/>
    </vehicle>
    <vehicle id="381" depart="38.10">
        <route edges="2:0 0:1 1:5"/>
    </vehicle>
    <vehicle id="383" depart="38.30">
        <route edges="6:5 5:1 1:0"/>
    </vehicle>
    <vehicle id="387" depart="38.70">
        <route edges="3:1 1:0 0:2"/>
    </vehicle>
    <vehicle id="388" depart="38.80">
        <route edges="0:1 1:5 5:6"/>
    </vehicle>
    <vehicle id="390" depart="39.00">
        <route edges="1:5 5:6"/>
    </vehicle>
    <vehicle id="393" depart="39.30">
        <route edges="7:3 3:1 1:5"/>
    </vehicle>
    <vehicle id="394" depart="39.40">
        <route edges="2:0 0:1"/>
    </vehicle>
    <vehicle id="395" depart="39.50">
        <route edges="1:3 3:7"/>
    </vehicle>
    <vehicle id="396" depart="39.60">
        <route edges="7:3 3:1"/>
    </vehicle>
    <vehicle id="397" depart="39.70">
        <route edges="7:3 3:1"/>
    </vehicle>
    <vehicle id="400" depart="40.00">
        <route edges="2:0 0:1 1:3 3:7"/>
    </vehicle>
    <vehicle id="401" depart="40.10">
        <route edges="0:1"/>
    </vehicle>
    <vehicle id="403" depart="40.30">
        <route edges="7:3 3:1 1:0 0:2"/>
    </vehicle>
    <vehicle id="405" depart="40.50">
        <route edges="1:0"/>
    </vehicle>
    <vehicle id="411" depart="41.10">
        <route edges="2:0 0:1 1:3 3:7"/>
    </vehicle>
    <vehicle id="413" depart="41.30">
        <route edges="6:5 5:1 1:3 3:7"/>
    </vehicle>
    <vehicle id="415" depart="41.50">
        <route edges="2:0 0:1 1:5"/>
    </vehicle>
    <vehicle id="416" depart="41.60">
        <route edges="5:1 1:0 0:2"/>
    </vehicle>
    <vehicle id="418" depart="41.80">
        <route edges="7:3 3:1"/>
    </vehicle>
    <vehicle id="420" depart="42.00">
        <route edges="1:0 0:2"/>
    </vehicle>
    <vehicle id="421" depart="42.10">
        <route edges="6:5 5:1 1:0 0:2"/>
    </vehicle>
    <vehicle id="424" depart="42.40">
        <route edges="0:1 1:3"/>
    </vehicle>
    <vehicle id="426" depart="42.60">
        <route edges="1:3 3:7"/>
    </vehicle>
    <vehicle id="427" depart="42.70">
        <route edges="2:0 0:1 1:3"/>
    </vehicle>
    <vehicle id="429" depart="42.90">
        <route edges="6:5 5:1 1:0"/>
    </vehicle>
    <vehicle id="430" depart="43.00">
        <route edges="7:3 3:1"/>
    </vehicle>
    <vehicle id="431" depart="43.10">
        <route edges="3:1 1:0 0:2"/>
    </vehicle>
    <vehicle id="433" depart="43.30">
        <route edges="3:1 1:0 0:2"/>
    </vehicle>
    <vehicle id="434" depart="43.40">
        <route edges="7:3 3:1 1:0 0:2"/>
    </vehicle>
    <vehicle id="435" depart="43.50">
        <route edges="2:0 0:1 1:3 3:7"/>
    </vehicle>
    <vehicle id="436" depart="43.60">
        <route edges="6:5 5:1 1:3 3:7"/>
    </vehicle>
    <vehicle id="438" depart="43.80">
        <route edges="2:0 0:1 1:3"/>
    </vehicle>
    <vehicle id="440" depart="44.00">
        <route edges="0:1 1:3 3:7"/>
    </vehicle>
    <vehicle id="442" depart="44.20">
        <route edges="2:0 0:1"/>
    </vehicle>
    <vehicle id="443" depart="44.30">
        <route edges="7:3 3:1"/>
    </vehicle>
    <vehicle id="445" depart="44.50">
        <route edges="6:5 5:1 1:0"/>
    </vehicle>
    <vehicle id="447" depart="44.70">
        <route edges="1:3 3:7"/>
    </vehicle>
    <vehicle id="449" depart="44.90">
        <route edges="6:5 5:1"/>
    </vehicle>
    <vehicle id="452" depart="45.20">
        <route edges="2:0 0:1 1:3 3:7"/>
    </vehicle>
    <vehicle id="453" depart="45.30">
        <route edges="3:1 1:0 0:2"/>
    </vehicle>
    <vehicle id="455" depart="45.50">
        <route edges="5:1 1:0"/>
    </vehicle>
    <vehicle id="456" depart="45.60">
        <route edges="3:1 1:0 0:2"/>
    </vehicle>
    <vehicle id="457" depart="45.70">
        <route edges="7:3 3:1 1:0"/>
    </vehicle>
    <vehicle id="458" depart="45.80">
        <route edges="7:3 3:1 1:5"/>
    </vehicle>
    <vehicle id="460" depart="46.00">
        <route edges="3:1"/>
    </vehicle>
    <vehicle id="463" depart="46.30">
        <route edges="3:1"/>
    </vehicle>
    <vehicle id="467" depart="46.70">
        <route edges="7:3 3:1 1:0 0:2"/>
    </vehicle>
    <vehicle id="468" depart="46.80">
        <route edges="0:1 1:5"/>
    </vehicle>
    <vehicle id="469" depart="46.90">
        <route edges="1:3"/>
    </vehicle>
    <vehicle id="470" depart="47.00">
        <route edges="1:0"/>
    </vehicle>
    <vehicle id="472" depart="47.20">
        <route edges="7:3 3:1 1:5 5:6"/>
    </vehicle>
    <vehicle id="473" depart="47.30">
        <route edges="7:3 3:1 1:0 0:2"/>
    </vehicle>
    <vehicle id="474" depart="47.40">
        <route edges="7:3 3:1 1:0"/>
    </vehicle>
    <vehicle id="477" depart="47.70">
        <route edges="7:3 3:1 1:0 0:2"/>
    </vehicle>
    <vehicle id="481" depart="48.10">
        <route edges="3:1 1:5 5:6"/>
    </vehicle>
    <vehicle id="482" depart="48.20">
        <route edges="7:3 3:1"/>
    </vehicle>
    <vehicle id="484" depart="48.40">
        <route edges="2:0 0:1 1:3"/>
    </vehicle>
    <vehicle id="487" depart="48.70">
        <route edges="7:3 3:1 1:5 5:6"/>
    </vehicle>
    <vehicle id="488" depart="48.80">
        <route edges="1:3 3:7"/>
    </vehicle>
    <vehicle id="489" depart="48.90">
        <route edges="3:1"/>
    </vehicle>
    <vehicle id="491" depart="49.10">
        <route edges="7:3 3:1 1:5 5:6"/>
    </vehicle>
    <vehicle id="492" depart="49.20">
        <route edges="2:0 0:1 1:5"/>
    </vehicle>
    <vehicle id="493" depart="49.30">
        <route edges="2:0 0:1 1:3 3:7"/>
    </vehicle>
    <vehicle id="494" depart="49.40">
        <route edges="3:1 1:0 0:2"/>
    </vehicle>
    <vehicle id="496" depart="49.60">
        <route edges="0:1 1:3"/>
    </vehicle>
    <vehicle id="498" depart="49.80">
        <route edges="1:5 5:6"/>
    </vehicle>
    <vehicle id="499" depart="49.90">
        <route edges="2:0 0:1 1:3"/>
    </vehicle>
    <vehicle id="501" depart="50.10">
        <route edges="7:3 3:1 1:5 5:6"/>
    </vehicle>
    <vehicle id="503" depart="50.30">
        <route edges="6:5 5:1 1:3 3:7"/>
    </vehicle>
    <vehicle id="504" depart="50.40">
        <route edges="6:5 5:1 1:3 3:7"/>
    </vehicle>
    <vehicle id="505" depart="50.50">
        <route edges="7:3 3:1 1:0 0:2"/>
    </vehicle>
    <vehicle id="507" depart="50.70">
        <route edges="2:0 0:1 1:3 3:7"/>
    </vehicle>
    <vehicle id="509" depart="50.90">
        <route edges="0:1 1:3 3:7"/>
    </vehicle>
    <vehicle id="510" depart="51.00">
        <route edges="2:0 0:1 1:3 3:7"/>
    </vehicle>
    <vehicle id="513" depart="51.30">
        <route edges="2:0 0:1 1:3"/>
    </vehicle>
    <vehicle id="515" depart="51.50">
        <route edges="3:1 1:0 0:2"/>
    </vehicle>
    <vehicle id="516" depart="51.60">
        <route edges="5:1"/>
    </vehicle>
    <vehicle id="517" depart="51.70">
        <route edges="3:1"/>
    </vehicle>
    <vehicle id="520" depart="52.00">
        <route edges="2:0 0:1 1:3 3:7"/>
    </vehicle>
    <vehicle id="523" depart="52.30">
        <route edges="2:0 0:1 1:3 3:7"/>
    </vehicle>
    <vehicle id="524" depart="52.40">
        <route edges="1:3 3:7"/>
    </vehicle>
    <vehicle id="527" depart="52.70">
        <route edges="2:0 0:1 1:3 3:7"/>
    </vehicle>
    <vehicle id="529" depart="52.90">
        <route edges="6:5 5:1 1:0 0:2"/>
    </vehicle>
    <vehicle id="530" depart="53.00">
        <route edges="0:1 1:3"/>
    </vehicle>
    <vehicle id="531" depart="53.10">
        <route edges="5:1 1:3 3:7"/>
    </vehicle>
    <vehicle id="532" depart="53.20">
        <route edges="1:0 0:2"/>
    </vehicle>
    <vehicle id="536" depart="53.60">
        <route edges="0:1 1:3"/>
    </vehicle>
    <vehicle id="538" depart="53.80">
        <route edges="7:3 3:1 1:0"/>
    </vehicle>
    <vehicle id="539" depart="53.90">
        <route edges="0:1 1:5 5:6"/>
    </vehicle>
    <vehicle id="541" depart="54.10">
        <route edges="2:0 0:1"/>
    </vehicle>
    <vehicle id="542" depart="54.20">
        <route edges="6:5 5:1 1:3 3:7"/>
    </vehicle>
    <vehicle id="543" depart="54.30">
        <route edges="1:3 3:7"/>
    </vehicle>
    <vehicle id="545" depart="54.50">
        <route edges="0:1 1:3 3:7"/>
    </vehicle>
    <vehicle id="550" depart="55.00">
        <route edges="6:5 5:1 1:0"/>
    </vehicle>
    <vehicle id="552" depart="55.20">
        <route edges="2:0 0:1 1:3"/>
    </vehicle>
    <vehicle id="558" depart="55.80">
        <route edges="1:3 3:7"/>
    </vehicle>
    <vehicle id="560" depart="56.00">
        <route edges="1:5"/>
    </vehicle>
    <vehicle id="561" depart="56.10">
        <route edges="2:0 0:1"/>
    </vehicle>
    <vehicle id="562" depart="56.20">
        <route edges="2:0 0:1 1:3 3:7"/>
    </vehicle>
    <vehicle id="563" depart="56.30">
        <route edges="2:0 0:1"/>
    </vehicle>
    <vehicle id="565" depart="56.50">
        <route edges="5:1 1:3 3:7"/>
    </vehicle>
    <vehicle id="566" depart="56.60">
        <route edges="6:5 5:1 1:3"/>
    </vehicle>
    <vehicle id="567" depart="56.70">
        <route edges="6:5 5:1 1:3 3:7"/>
    </vehicle>
    <vehicle id="571" depart="57.10">
        <route edges="2:0 0:1"/>
    </vehicle>
    <vehicle id="572" depart="57.20">
        <route edges="6:5 5:1 1:3 3:7"/>
    </vehicle>
    <vehicle id="574" depart="57.40">
        <route edges="3:1"/>
    </vehicle>
    <vehicle id="576" depart="57.60">
        <route edges="7:3 3:1 1:0 0:2"/>
    </vehicle>
    <vehicle id="579" depart="57.90">
        <route edges="1:3 3:7"/>
    </vehicle>
    <vehicle id="586" depart="58.60">
        <route edges="7:3 3:1 1:0 0:2"/>
    </vehicle>
    <vehicle id="590" depart="59.00">
        <route edges="3:1 1:0 0:2"/>
    </vehicle>
    <vehicle id="591" depart="59.10">
        <route edges="0:1 1:3 3:7"/>
    </vehicle>
    <vehicle id="592" depart="59.20">
        <route edges="2:0 0:1 1:3 3:7"/>
    </vehicle>
    <vehicle id="593" depart="59.30">
        <route edges="1:3 3:7"/>
    </vehicle>
    <vehicle id="598" depart="59.80">
        <route edges="0:1 1:5"/>
    </vehicle>
    <vehicle id="599" depart="59.90">
        <route edges="2:0 0:1 1:3"/>
    </vehicle>
    <vehicle id="604" depart="60.40">
        <route edges="1:0 0:2"/>
    </vehicle>
    <vehicle id="605" depart="60.50">
        <route edges="2:0 0:1 1:3 3:7"/>
    </vehicle>
    <vehicle id="606" depart="60.60">
        <route edges="7:3 3:1 1:0"/>
    </vehicle>
    <vehicle id="608" depart="60.80">
        <route edges="7:3 3:1 1:0"/>
    </vehicle>
    <vehicle id="609" depart="60.90">
        <route edges="6:5 5:1 1:3"/>
    </vehicle>
    <vehicle id="610" depart="61.00">
        <route edges="1:0 0:2"/>
    </vehicle>
    <vehicle id="611" depart="61.10">
        <route edges="5:1 1:0"/>
    </vehicle>
    <vehicle id="618" depart="61.80">
        <route edges="3:1 1:0 0:2"/>
    </vehicle>
    <vehicle id="619" depart="61.90">
        <route edges="2:0 0:1 1:3"/>
    </vehicle>
    <vehicle id="621" depart="62.10">
        <route edges="5:1"/>
    </vehicle>
    <vehicle id="624" depart="62.40">
        <route edges="0:1 1:5 5:6"/>
    </vehicle>
    <vehicle id="625" depart="62.50">
        <route edges="5:1 1:3 3:7"/>
    </vehicle>
    <vehicle id="629" depart="62.90">
        <route edges="2:0 0:1 1:5"/>
    </vehicle>
    <vehicle id="633" depart="63.30">
        <route edges="7:3 3:1 1:0 0:2"/>
    </vehicle>
    <vehicle id="634" depart="63.40">