<?xml version="1.0" encoding="UTF-8"?>

<!-- generated on Thu Feb 13 12:39:52 2014 by SUMO duarouter Version 0.18.0
<?xml version="1.0" encoding="UTF-8"?>

<configuration xmlns:xsi="http://www.w3.org/2001/XMLSchema-instance" xsi:noNamespaceSchemaLocation="http://sumo.sf.net/xsd/duarouterConfiguration.xsd">

    <input>
        <net-file value="simpleT.net.xml"/>
        <trip-files value="experimentos/simpleT.p1.0.4.trips.xml"/>
    </input>

    <output>
        <output-file value="experimentos/simpleT.p1.0.4.rou.xml"/>
    </output>

    <processing>
        <ignore-errors value="true"/>
    </processing>

    <random_number>
        <random value="true"/>
    </random_number>

</configuration>
-->

<routes xmlns:xsi="http://www.w3.org/2001/XMLSchema-instance" xsi:noNamespaceSchemaLocation="http://sumo.sf.net/xsd/routes_file.xsd">
    <vehicle id="0" depart="0.00">
        <route edges="3:1 1:0 0:2"/>
    </vehicle>
    <vehicle id="2" depart="2.00">
        <route edges="7:3 3:1 1:0"/>
    </vehicle>
    <vehicle id="5" depart="5.00">
        <route edges="2:0 0:1 1:3 3:7"/>
    </vehicle>
    <vehicle id="7" depart="7.00">
        <route edges="7:3 3:1 1:0 0:2"/>
    </vehicle>
    <vehicle id="8" depart="8.00">
        <route edges="1:3 3:7"/>
    </vehicle>
    <vehicle id="10" depart="10.00">
        <route edges="2:0 0:1 1:5 5:6"/>
    </vehicle>
    <vehicle id="13" depart="13.00">
        <route edges="7:3 3:1 1:0 0:2"/>
    </vehicle>
    <vehicle id="17" depart="17.00">
        <route edges="2:0 0:1 1:5 5:6"/>
    </vehicle>
    <vehicle id="18" depart="18.00">
        <route edges="5:1 1:0"/>
    </vehicle>
    <vehicle id="20" depart="20.00">
        <route edges="2:0 0:1 1:3 3:7"/>
    </vehicle>
    <vehicle id="21" depart="21.00">
        <route edges="0:1 1:3 3:7"/>
    </vehicle>
    <vehicle id="22" depart="22.00">
        <route edges="6:5 5:1 1:0 0:2"/>
    </vehicle>
    <vehicle id="25" depart="25.00">
        <route edges="7:3 3:1 1:0 0:2"/>
    </vehicle>
    <vehicle id="26" depart="26.00">
        <route edges="3:1 1:5 5:6"/>
    </vehicle>
    <vehicle id="27" depart="27.00">
        <route edges="3:1 1:5 5:6"/>
    </vehicle>
    <vehicle id="28" depart="28.00">
        <route edges="0:1 1:3 3:7"/>
    </vehicle>
    <vehicle id="33" depart="33.00">
        <route edges="6:5 5:1 1:3 3:7"/>
    </vehicle>
    <vehicle id="34" depart="34.00">
        <route edges="5:1 1:0 0:2"/>
    </vehicle>
    <vehicle id="35" depart="35.00">
        <route edges="7:3 3:1 1:5 5:6"/>
    </vehicle>
    <vehicle id="36" depart="36.00">
        <route edges="1:5"/>
    </vehicle>
    <vehicle id="38" depart="38.00">
        <route edges="2:0 0:1 1:3"/>
    </vehicle>
    <vehicle id="40" depart="40.00">
        <route edges="2:0 0:1 1:3 3:7"/>
    </vehicle>
    <vehicle id="41" depart="41.00">
        <route edges="3:1 1:0 0:2"/>
    </vehicle>
    <vehicle id="42" depart="42.00">
        <route edges="2:0 0:1 1:3 3:7"/>
    </vehicle>
    <vehicle id="43" depart="43.00">
        <route edges="2:0 0:1 1:5 5:6"/>
    </vehicle>
    <vehicle id="47" depart="47.00">
        <route edges="7:3 3:1"/>
    </vehicle>
    <vehicle id="48" depart="48.00">
        <route edges="0:1 1:3 3:7"/>
    </vehicle>
    <vehicle id="55" depart="55.00">
        <route edges="7:3 3:1 1:5"/>
    </vehicle>
    <vehicle id="56" depart="56.00">
        <route edges="7:3 3:1 1:0 0:2"/>
    </vehicle>
    <vehicle id="59" depart="59.00">
        <route edges="1:0 0:2"/>
    </vehicle>
    <vehicle id="62" depart="62.00">
        <route edges="2:0 0:1 1:3 3:7"/>
    </vehicle>
    <vehicle id="64" depart="64.00">
        <route edges="3:1"/>
    </vehicle>
    <vehicle id="65" depart="65.00">
        <route edges="6:5 5:1 1:0 0:2"/>
    </vehicle>
    <vehicle id="67" depart="67.00">
        <route edges="7:3 3:1 1:0 0:2"/>
    </vehicle>
    <vehicle id="69" depart="69.00">
        <route edges="0:1"/>
    </vehicle>
    <vehicle id="73" depart="73.00">
        <route edges="6:5 5:1 1:3 3:7"/>
    </vehicle>
    <vehicle id="74" depart="74.00">
        <route edges="7:3 3:1 1:0 0:2"/>
    </vehicle>
    <vehicle id="75" depart="75.00">
        <route edges="0:1 1:5 5:6"/>
    </vehicle>
    <vehicle id="80" depart="80.00">
        <route edges="2:0 0:1"/>
    </vehicle>
    <vehicle id="81" depart="81.00">
        <route edges="6:5 5:1 1:0 0:2"/>
    </vehicle>
    <vehicle id="84" depart="84.00">
        <route edges="3:1 1:5 5:6"/>
    </vehicle>
    <vehicle id="85" depart="85.00">
        <route edges="0:1 1:3 3:7"/>
    </vehicle>
    <vehicle id="87" depart="87.00">
        <route edges="3:1 1:0 0:2"/>
    </vehicle>
    <vehicle id="92" depart="92.00">
        <route edges="7:3 3:1 1:5 5:6"/>
    </vehicle>
    <vehicle id="95" depart="95.00">
        <route edges="1:0"/>
    </vehicle>
    <vehicle id="96" depart="96.00">
        <route edges="6:5 5:1 1:3"/>
    </vehicle>
    <vehicle id="97" depart="97.00">
        <route edges="2:0 0:1 1:3"/>
    </vehicle>
    <vehicle id="98" depart="98.00">
        <route edges="1:3 3:7"/>
    </vehicle>
    <vehicle id="99" depart="99.00">
        <route edges="7:3 3:1"/>
    </vehicle>
    <vehicle id="102" depart="102.00">
        <route edges="7:3 3:1 1:0 0:2"/>
    </vehicle>
    <vehicle id="104" depart="104.00">
        <route edges="1:3"/>
    </vehicle>
    <vehicle id="107" depart="107.00">
        <route edges="2:0 0:1 1:3 3:7"/>
    </vehicle>
    <vehicle id="109" depart="109.00">
        <route edges="6:5 5:1 1:0 0:2"/>
    </vehicle>
    <vehicle id="110" depart="110.00">
        <route edges="7:3 3:1 1:0"/>
    </vehicle>
    <vehicle id="114" depart="114.00">
        <route edges="7:3 3:1 1:0"/>
    </vehicle>
    <vehicle id="116" depart="116.00">
        <route edges="2:0 0:1 1:3"/>
    </vehicle>
    <vehicle id="117" depart="117.00">
        <route edges="2:0 0:1 1:5 5:6"/>
    </vehicle>
    <vehicle id="120" depart="120.00">
        <route edges="2:0 0:1 1:5 5:6"/>
    </vehicle>
    <vehicle id="122" depart="122.00">
        <route edges="2:0 0:1"/>
    </vehicle>
    <vehicle id="123" depart="123.00">
        <route edges="7:3 3:1 1:5 5:6"/>
    </vehicle>
    <vehicle id="124" depart="124.00">
        <route edges="2:0 0:1 1:3 3:7"/>
    </vehicle>
    <vehicle id="126" depart="126.00">
        <route edges="1:3 3:7"/>
    </vehicle>
    <vehicle id="128" depart="128.00">
        <route edges="5:1 1:3 3:7"/>
    </vehicle>
    <vehicle id="135" depart="135.00">
        <route edges="7:3 3:1 1:0 0:2"/>
    </vehicle>
    <vehicle id="138" depart="138.00">
        <route edges="0:1 1:5 5:6"/>
    </vehicle>
    <vehicle id="139" depart="139.00">
        <route edges="1:3 3:7"/>
    </vehicle>
    <vehicle id="141" depart="141.00">
        <route edges="7:3 3:1"/>
    </vehicle>
    <vehicle id="142" depart="142.00">
        <route edges="1:5 5:6"/>
    </vehicle>
    <vehicle id="145" depart="145.00">
        <route edges="2:0 0:1 1:3"/>
    </vehicle>
    <vehicle id="147" depart="147.00">
        <route edges="2:0 0:1 1:5 5:6"/>
    </vehicle>
    <vehicle id="148" depart="148.00">
        <route edges="5:1 1:0 0:2"/>
    </vehicle>
    <vehicle id="149" depart="149.00">
        <route edges="7:3 3:1 1:0"/>
    </vehicle>
    <vehicle id="156" depart="156.00">
        <route edges="2:0 0:1"/>
    </vehicle>
    <vehicle id="158" depart="158.00">
        <route edges="2:0 0:1 1:3 3:7"/>
    </vehicle>
    <vehicle id="159" depart="159.00">
        <route edges="1:0 0:2"/>
    </vehicle>
    <vehicle id="163" depart="163.00">
        <route edges="5:1 1:0 0:2"/>
    </vehicle>
    <vehicle id="165" depart="165.00">
        <route edges="7:3 3:1 1:5 5:6"/>
    </vehicle>
    <vehicle id="169" depart="169.00">
        <route edges="2:0 0:1 1:3 3:7"/>
    </vehicle>
    <vehicle id="171" depart="171.00">
        <route edges="1:0 0:2"/>
    </vehicle>
    <vehicle id="172" depart="172.00">
        <route edges="7:3 3:1 1:0 0:2"/>
    </vehicle>
    <vehicle id="174" depart="174.00">
        <route edges="1:0"/>
    </vehicle>
    <vehicle id="176" depart="176.00">
        <route edges="2:0 0:1 1:5"/>
    </vehicle>
    <vehicle id="177" depart="177.00">
        <route edges="7:3 3:1"/>
    </vehicle>
    <vehicle id="178" depart="178.00">
        <route edges="5:1"/>
    </vehicle>
    <vehicle id="179" depart="179.00">
        <route edges="0:1 1:5 5:6"/>
    </vehicle>
    <vehicle id="181" depart="181.00">
        <route edges="7:3 3:1 1:5"/>
    </vehicle>
    <vehicle id="183" depart="183.00">
        <route edges="0:1 1:3"/>
    </vehicle>
    <vehicle id="184" depart="184.00">
        <route edges="7:3 3:1 1:0 0:2"/>
    </vehicle>
    <vehicle id="185" depart="185.00">
        <route edges="1:0 0:2"/>
    </vehicle>
    <vehicle id="192" depart="192.00">
        <route edges="2:0 0:1 1:5"/>
    </vehicle>
    <vehicle id="197" depart="197.00">
        <route edges="2:0 0:1 1:3"/>
    </vehicle>
    <vehicle id="201" depart="201.00">
        <route edges="7:3 3:1 1:0 0:2"/>
    </vehicle>
    <vehicle id="203" depart="203.00">
        <route edges="2:0 0:1 1:3 3:7"/>
    </vehicle>
    <vehicle id="204" depart="204.00">
        <route edges="7:3 3:1 1:0 0:2"/>
    </vehicle>
    <vehicle id="206" depart="206.00">
        <route edges="6:5 5:1 1:3"/>
    </vehicle>
    <vehicle id="207" depart="207.00">
        <route edges="2:0 0:1 1:3"/>
    </vehicle>
    <vehicle id="208" depart="208.00">
        <route edges="1:3 3:7"/>
    </vehicle>
    <vehicle id="209" depart="209.00">
        <route edges="5:1 1:3"/>
    </vehicle>
    <vehicle id="210" depart="210.00">
        <route edges="7:3 3:1"/>
    </vehicle>
    <vehicle id="213" depart="213.00">
        <route edges="7:3 3:1 1:0 0:2"/>
    </vehicle>
    <vehicle id="216" depart="216.00">
        <route edges="0:1 1:3 3:7"/>
    </vehicle>
    <vehicle id="218" depart="218.00">
        <route edges="2:0 0:1 1:3 3:7"/>
    </vehicle>
    <vehicle id="219" depart="219.00">
        <route edges="6:5 5:1 1:0 0:2"/>
    </vehicle>
    <vehicle id="220" depart="220.00">
        <route edges="6:5 5:1 1:3 3:7"/>
    </vehicle>
    <vehicle id="221" depart="221.00">
        <route edges="7:3 3:1 1:0 0:2"/>
    </vehicle>
    <vehicle id="222" depart="222.00">
        <route edges="3:1 1:0"/>
    </vehicle>
    <vehicle id="225" depart="225.00">
        <route edges="5:1 1:0 0:2"/>
    </vehicle>
    <vehicle id="227" depart="227.00">
        <route edges="0:1 1:3 3:7"/>
    </vehicle>
    <vehicle id="228" depart="228.00">
        <route edges="7:3 3:1"/>
    </vehicle>
    <vehicle id="231" depart="231.00">
        <route edges="1:5"/>
    </vehicle>
    <vehicle id="233" depart="233.00">
        <route edges="2:0 0:1 1:3 3:7"/>
    </vehicle>
    <vehicle id="235" depart="235.00">
        <route edges="1:3 3:7"/>
    </vehicle>
    <vehicle id="236" depart="236.00">
        <route edges="3:1 1:5"/>
    </vehicle>
    <vehicle id="237" depart="237.00">
        <route edges="2:0 0:1 1:3 3:7"/>
    </vehicle>
    <vehicle id="239" depart="239.00">
        <route edges="1:0 0:2"/>
    </vehicle>
    <vehicle id="241" depart="241.00">
        <route edges="1:0 0:2"/>
    </vehicle>
    <vehicle id="244" depart="244.00">
        <route edges="2:0 0:1 1:3 3:7"/>
    </vehicle>
    <vehicle id="245" depart="245.00">
        <route edges="7:3 3:1 1:0 0:2"/>
    </vehicle>
    <vehicle id="246" depart="246.00">
        <route edges="3:1 1:0 0:2"/>
    </vehicle>
    <vehicle id="247" depart="247.00">
        <route edges="7:3 3:1 1:0 0:2"/>
    </vehicle>
    <vehicle id="248" depart="248.00">
        <route edges="3:1 1:0 0:2"/>
    </vehicle>
    <vehicle id="253" depart="253.00">
        <route edges="0:1 1:3 3:7"/>
    </vehicle>
    <vehicle id="254" depart="254.00">
        <route edges="3:1 1:0"/>
    </vehicle>
    <vehicle id="256" depart="256.00">
        <route edges="0:1"/>
    </vehicle>
    <vehicle id="259" depart="259.00">
        <route edges="7:3 3:1"/>
    </vehicle>
    <vehicle id="260" depart="260.00">
        <route edges="1:0"/>
    </vehicle>
    <vehicle id="262" depart="262.00">
        <route edges="7:3 3:1"/>
    </vehicle>
    <vehicle id="265" depart="265.00">
        <route edges="0:1 1:3 3:7"/>
    </vehicle>
    <vehicle id="266" depart="266.00">
        <route edges="2:0 0:1 1:3 3:7"/>
    </vehicle>
    <vehicle id="268" depart="268.00">
        <route edges="2:0 0:1 1:3 3:7"/>
    </vehicle>
    <vehicle id="269" depart="269.00">
        <route edges="1:5 5:6"/>
    </vehicle>
    <vehicle id="270" depart="270.00">
        <route edges="1:3 3:7"/>
    </vehicle>
    <vehicle id="271" depart="271.00">
        <route edges="3:1"/>
    </vehicle>
    <vehicle id="272" depart="272.00">
        <route edges="0:1"/>
    </vehicle>
    <vehicle id="275" depart="275.00">
        <route edges="2:0 0:1 1:5 5:6"/>
    </vehicle>
    <vehicle id="280" depart="280.00">
        <route edges="2:0 0:1"/>
    </vehicle>
    <vehicle id="282" depart="282.00">
        <route edges="1:0"/>
    </vehicle>
    <vehicle id="284" depart="284.00">
        <route edges="3:1 1:5 5:6"/>
    </vehicle>
    <vehicle id="287" depart="287.00">
        <route edges="1:3 3:7"/>
    </vehicle>
    <vehicle id="289" depart="289.00">
        <route edges="3:1 1:0 0:2"/>
    </vehicle>
    <vehicle id="292" depart="292.00">
        <route edges="1:0"/>
    </vehicle>
    <vehicle id="298" depart="298.00">
        <route edges="0:1 1:5"/>
    </vehicle>
    <vehicle id="299" depart="299.00">
        <route edges="6:5 5:1 1:0"/>
    </vehicle>
    <vehicle id="302" depart="302.00">
        <route edges="5:1 1:3 3:7"/>
    </vehicle>
    <vehicle id="304" depart="304.00">
        <route edges="2:0 0:1 1:3 3:7"/>
    </vehicle>
    <vehicle id="308" depart="308.00">
        <route edges="7:3 3:1 1:0 0:2"/>
    </vehicle>
    <vehicle id="309" depart="309.00">
        <route edges="5:1 1:0"/>
    </vehicle>
    <vehicle id="311" depart="311.00">
        <route edges="1:5"/>
    </vehicle>
    <vehicle id="313" depart="313.00">
        <route edges="0:1 1:3"/>
    </vehicle>
    <vehicle id="320" depart="320.00">
        <route edges="7:3 3:1"/>
    </vehicle>
    <vehicle id="322" depart="322.00">
        <route edges="3:1"/>
    </vehicle>
    <vehicle id="323" depart="323.00">
        <route edges="7:3 3:1 1:5 5:6"/>
    </vehicle>
    <vehicle id="324" depart="324.00">
        <route edges="0:1 1:3 3:7"/>
    </vehicle>
    <vehicle id="325" depart="325.00">
        <route edges="2:0 0:1 1:5"/>
    </vehicle>
    <vehicle id="326" depart="326.00">
        <route edges="0:1 1:3 3:7"/>
    </vehicle>
    <vehicle id="327" depart="327.00">
        <route edges="2:0 0:1 1:3"/>
    </vehicle>
    <vehicle id="329" depart="329.00">
        <route edges="2:0 0:1 1:5 5:6"/>
    </vehicle>
    <vehicle id="330" depart="330.00">
        <route edges="2:0 0:1 1:3"/>
    </vehicle>
    <vehicle id="331" depart="331.00">
        <route edges="0:1 1:3 3:7"/>
    </vehicle>
    <vehicle id="333" depart="333.00">
        <route edges="1:3 3:7"/>
    </vehicle>
    <vehicle id="334" depart="334.00">
        <route edges="1:3 3:7"/>
    </vehicle>
    <vehicle id="336" depart="336.00">
        <route edges="5:1 1:0"/>
    </vehicle>
    <vehicle id="338" depart="338.00">
        <route edges="7:3 3:1 1:0 0:2"/>
    </vehicle>
    <vehicle id="341" depart="341.00">
        <route edges="7:3 3:1 1:0 0:2"/>
    </vehicle>
    <vehicle id="343" depart="343.00">
        <route edges="7:3 3:1"/>
    </vehicle>
    <vehicle id="345" depart="345.00">
        <route edges="7:3 3:1 1:0"/>
    </vehicle>
    <vehicle id="348" depart="348.00">
        <route edges="0:1 1:3"/>
    </vehicle>
    <vehicle id="354" depart="354.00">
        <route edges="3:1 1:5 5:6"/>
    </vehicle>
    <vehicle id="356" depart="356.00">
        <route edges="7:3 3:1 1:0 0:2"/>
    </vehicle>
    <vehicle id="357" depart="357.00">
        <route edges="0:1"/>
    </vehicle>
    <vehicle id="358" depart="358.00">
        <route edges="6:5 5:1 1:0"/>
    </vehicle>
    <vehicle id="361" depart="361.00">
        <route edges="2:0 0:1"/>
    </vehicle>
    <vehicle id="363" depart="363.00">
        <route edges="7:3 3:1 1:0"/>
    </vehicle>
    <vehicle id="366" depart="366.00">
        <route edges="1:0 0:2"/>
    </vehicle>
    <vehicle id="367" depart="367.00">
        <route edges="2:0 0:1 1:3"/>
    </vehicle>
    <vehicle id="370" depart="370.00">
        <route edges="6:5 5:1 1:3"/>
    </vehicle>
    <vehicle id="374" depart="374.00">
        <route edges="1:3 3:7"/>
    </vehicle>
    <vehicle id="376" depart="376.00">
        <route edges="5:1 1:0"/>
    </vehicle>
    <vehicle id="379" depart="379.00">
        <route edges="2:0 0:1"/>
    </vehicle>
    <vehicle id="380" depart="380.00">
        <route edges="1:0 0:2"/>
    </vehicle>
    <vehicle id="384" depart="384.00">
        <route edges="2:0 0:1 1:5 5:6"/>
    </vehicle>
    <vehicle id="386" depart="386.00">
        <route edges="0:1 1:5 5:6"/>
    </vehicle>
    <vehicle id="394" depart="394.00">
        <route edges="1:3"/>
    </vehicle>
    <vehicle id="396" depart="396.00">
        <route edges="6:5 5:1 1:0"/>
    </vehicle>
    <vehicle id="397" depart="397.00">
        <route edges="1:3 3:7"/>
    </vehicle>
    <vehicle id="398" depart="398.00">
        <route edges="1:3 3:7"/>
    </vehicle>
    <vehicle id="401" depart="401.00">
        <route edges="7:3 3:1 1:0 0:2"/>
    </vehicle>
    <vehicle id="406" depart="406.00">
        <route edges="2:0 0:1 1:3"/>
    </vehicle>
    <vehicle id="407" depart="407.00">
        <route edges="5:1 1:0 0:2"/>
    </vehicle>
    <vehicle id="408" depart="408.00">
        <route edges="0:1 1:3"/>
    </vehicle>
    <vehicle id="409" depart="409.00">
        <route edges="7:3 3:1"/>
    </vehicle>
    <vehicle id="411" depart="411.00">
        <route edges="2:0 0:1 1:3 3:7"/>
    </vehicle>
    <vehicle id="412" depart="412.00">
        <route edges="3:1 1:5 5:6"/>
    </vehicle>
    <vehicle id="414" depart="414.00">
        <route edges="0:1 1:3 3:7"/>
    </vehicle>
    <vehicle id="415" depart="415.00">
        <route edges="6:5 5:1 1:3"/>
    </vehicle>
    <vehicle id="419" depart="419.00">
        <route edges="5:1 1:0 0:2"/>
    </vehicle>
    <vehicle id="420" depart="420.00">
        <route edges="6:5 5:1 1:0 0:2"/>
    </vehicle>
    <vehicle id="422" depart="422.00">
        <route edges="2:0 0:1 1:3 3:7"/>
    </vehicle>
    <vehicle id="423" depart="423.00">
        <route edges="5:1 1:0 0:2"/>
    </vehicle>
    <vehicle id="424" depart="424.00">
        <route edges="5:1 1:3 3:7"/>
    </vehicle>
    <vehicle id="425" depart="425.00">
        <route edges="3:1 1:5 5:6"/>
    </vehicle>
    <vehicle id="426" depart="426.00">
        <route edges="7:3 3:1 1:0 0:2"/>
    </vehicle>
    <vehicle id="427" depart="427.00">
        <route edges="2:0 0:1 1:5"/>
    </vehicle>
    <vehicle id="428" depart="428.00">
        <route edges="7:3 3:1"/>
    </vehicle>
    <vehicle id="432" depart="432.00">
        <route edges="2:0 0:1 1:5 5:6"/>
    </vehicle>
    <vehicle id="433" depart="433.00">
        <route edges="3:1"/>
    </vehicle>
    <vehicle id="434" depart="434.00">
        <route edges="2:0 0:1 1:3 3:7"/>
    </vehicle>
    <vehicle id="437" depart="437.00">
        <route edges="0:1 1:5 5:6"/>
    </vehicle>
    <vehicle id="438" depart="438.00">
        <route edges="0:1 1:3"/>
    </vehicle>
    <vehicle id="439" depart="439.00">
        <route edges="1:3 3:7"/>
    </vehicle>
    <vehicle id="441" depart="441.00">
        <route edges="1:3 3:7"/>
    </vehicle>
    <vehicle id="444" depart="444.00">
        <route edges="1:3 3:7"/>
    </vehicle>
    <vehicle id="447" depart="447.00">
        <route edges="2:0 0:1 1:3"/>
    </vehicle>
    <vehicle id="448" depart="448.00">
        <route edges="7:3 3:1 1:0 0:2"/>
    </vehicle>
    <vehicle id="449" depart="449.00">
        <route edges="2:0 0:1"/>
    </vehicle>
    <vehicle id="450" depart="450.00">
        <route edges="0:1 1:3 3:7"/>
    </vehicle>
    <vehicle id="451" depart="451.00">
        <route edges="2:0 0:1 1:3 3:7"/>
    </vehicle>
    <vehicle id="452" depart="452.00">
        <route edges="7:3 3:1 1:5"/>
    </vehicle>
    <vehicle id="454" depart="454.00">
        <route edges="2:0 0:1 1:3 3:7"/>
    </vehicle>
    <vehicle id="455" depart="455.00">
        <route edges="2:0 0:1 1:3"/>
    </vehicle>
    <vehicle id="456" depart="456.00">
        <route edges="1:3"/>
    </vehicle>
    <vehicle id="457" depart="457.00">
        <route edges="3:1"/>
    </vehicle>
    <vehicle id="458" depart="458.00">
        <route edges="7:3 3:1 1:0"/>
    </vehicle>
    <vehicle id="460" depart="460.00">
        <route edges="2:0 0:1 1:5 5:6"/>
    </vehicle>
    <vehicle id="461" depart="461.00">
        <route edges="2:0 0:1 1:3"/>
    </vehicle>
    <vehicle id="464" depart="464.00">
        <route edges="2:0 0:1 1:5 5:6"/>
    </vehicle>
    <vehicle id="465" depart="465.00">
        <route edges="0:1 1:3 3:7"/>
    </vehicle>
    <vehicle id="467" depart="467.00">
        <route edges="1:0 0:2"/>
    </vehicle>
    <vehicle id="470" depart="470.00">
        <route edges="7:3 3:1 1:5 5:6"/>
    </vehicle>
    <vehicle id="472" depart="472.00">
        <route edges="5:1"/>
    </vehicle>
    <vehicle id="473" depart="473.00">
        <route edges="6:5 5:1 1:3 3:7"/>
    </vehicle>
    <vehicle id="475" depart="475.00">
        <route edges="7:3 3:1"/>
    </vehicle>
    <vehicle id="477" depart="477.00">
        <route edges="6:5 5:1 1:0 0:2"/>
    </vehicle>
    <vehicle id="478" depart="478.00">
        <route edges="0:1 1:3 3:7"/>
    </vehicle>
    <vehicle id="482" depart="482.00">
        <route edges="6:5 5:1 1:0"/>
    </vehicle>
    <vehicle id="483" depart="483.00">
        <route edges="3:1 1:0"/>
    </vehicle>
    <vehicle id="484" depart="484.00">
        <route edges="2:0 0:1 1:3"/>
    </vehicle>
    <vehicle id="486" depart="486.00">
        <route edges="7:3 3:1 1:5 5:6"/>
    </vehicle>
    <vehicle id="490" depart="490.00">
        <route edges="0:1"/>
    </vehicle>
    <vehicle id="491" depart="491.00">
        <route edges="3:1 1:0 0:2"/>
    </vehicle>
    <vehicle id="493" depart="493.00">
        <route edges="3:1"/>
    </vehicle>
    <vehicle id="494" depart="494.00">
        <route edges="7:3 3:1 1:5 5:6"/>
    </vehicle>
    <vehicle id="495" depart="495.00">
        <route edges="7:3 3:1 1:0"/>
    </vehicle>
    <vehicle id="496" depart="496.00">
        <route edges="1:5 5:6"/>
    </vehicle>
    <vehicle id="499" depart="499.00">
        <route edges="5:1 1:3"/>
    </vehicle>
    <vehicle id="500" depart="500.00">
        <route edges="7:3 3:1 1:0"/>
    </vehicle>
    <vehicle id="502" depart="502.00">
        <route edges="2:0 0:1"/>
    </vehicle>
    <vehicle id="503" depart="503.00">
        <route edges="0:1"/>
    </vehicle>
    <vehicle id="504" depart="504.00">
        <route edges="3:1"/>
    </vehicle>
    <vehicle id="509" depart="509.00">
        <route edges="0:1 1:3"/>
    </vehicle>
    <vehicle id="510" depart="510.00">
        <route edges="1:3 3:7"/>
    </vehicle>
    <vehicle id="511" depart="511.00">
        <route edges="1:3"/>
    </vehicle>
    <vehicle id="512" depart="512.00">
        <route edges="5:1 1:0"/>
    </vehicle>
    <vehicle id="514" depart="514.00">
        <route edges="7:3 3:1 1:0 0:2"/>
    </vehicle>
    <vehicle id="517" depart="517.00">
        <route edges="3:1 1:0 0:2"/>
    </vehicle>
    <vehicle id="522" depart="522.00">
        <route edges="7:3 3:1"/>
    </vehicle>
    <vehicle id="523" depart="523.00">
        <route edges="0:1 1:5 5:6"/>
    </vehicle>
    <vehicle id="524" depart="524.00">
        <route edges="7:3 3:1 1:0"/>
    </vehicle>
    <vehicle id="525" depart="525.00">
        <route edges="6:5 5:1 1:3"/>
    </vehicle>
    <vehicle id="527" depart="527.00">
        <route edges="0:1 1:3 3:7"/>
    </vehicle>
    <vehicle id="530" depart="530.00">
        <route edges="6:5 5:1 1:0 0:2"/>
    </vehicle>
    <vehicle id="531" depart="531.00">
        <route edges="2:0 0:1"/>
    </vehicle>
    <vehicle id="532" depart="532.00">
        <route edges="0:1"/>
    </vehicle>
    <vehicle id="533" depart="533.00">
        <route edges="0:1 1:5 5:6"/>
    </vehicle>
    <vehicle id="536" depart="536.00">
        <route edges="2:0 0:1"/>
    </vehicle>
    <vehicle id="539" depart="539.00">
        <route edges="2:0 0:1 1:5 5:6"/>
    </vehicle>
    <vehicle id="540" depart="540.00">
        <route edges="2:0 0:1"/>
    </vehicle>
    <vehicle id="541" depart="541.00">
        <route edges="0:1 1:3 3:7"/>
    </vehicle>
    <vehicle id="543" depart="543.00">
        <route edges="1:0 0:2"/>
    </vehicle>
    <vehicle id="544" depart="544.00">
        <route edges="2:0 0:1"/>
    </vehicle>
    <vehicle id="550" depart="550.00">
        <route edges="5:1 1:3 3:7"/>
    </vehicle>
    <vehicle id="552" depart="552.00">
        <route edges="6:5 5:1 1:0 0:2"/>
    </vehicle>
    <vehicle id="553" depart="553.00">
        <route edges="3:1 1:0"/>
    </vehicle>
    <vehicle id="555" depart="555.00">
        <route edges="3:1"/>
    </vehicle>
    <vehicle id="557" depart="557.00">
        <route edges="3:1 1:5 5:6"/>
    </vehicle>
    <vehicle id="558" depart="558.00">
        <route edges="6:5 5:1 1:3 3:7"/>
    </vehicle>
    <vehicle id="560" depart="560.00">
        <route edges="0:1 1:3 3:7"/>
    </vehicle>
    <vehicle id="563" depart="563.00">
        <route edges="2:0 0:1"/>
    </vehicle>
    <vehicle id="564" depart="564.00">
        <route edges="0:1 1:3"/>
    </vehicle>
    <vehicle id="565" depart="565.00">
        <route edges="3:1 1:0 0:2"/>
    </vehicle>
    <vehicle id="566" depart="566.00">
        <route edges="0:1 1:3 3:7"/>
    </vehicle>
    <vehicle id="568" depart="568.00">
        <route edges="5:1 1:0 0:2"/>
    </vehicle>
    <vehicle id="571" depart="571.00">
        <route edges="7:3 3:1 1:5 5:6"/>
    </vehicle>
    <vehicle id="573" depart="573.00">
        <route edges="7:3 3:1 1:0 0:2"/>
    </vehicle>
    <vehicle id="574" depart="574.00">
        <route edges="7:3 3:1 1:0"/>
    </vehicle>
    <vehicle id="576" depart="576.00">
        <route edges="6:5 5:1 1:3 3:7"/>
    </vehicle>
    <vehicle id="578" depart="578.00">
        <route edges="2:0 0:1 1:3 3:7"/>
    </vehicle>
    <vehicle id="581" depart="581.00">
        <route edges="5:1"/>
    </vehicle>
    <vehicle id="585" depart="585.00">
        <route edges="7:3 3:1"/>
    </vehicle>
    <vehicle id="588" depart="588.00">
        <route edges="3:1 1:5 5:6"/>
    </vehicle>
    <vehicle id="589" depart="589.00">
        <route edges="1:3 3:7"/>
    </vehicle>
    <vehicle id="593" depart="593.00">
        <route edges="2:0 0:1 1:5 5:6"/>
    </vehicle>
    <vehicle id="596" depart="596.00">
        <route edges="7:3 3:1"/>
    </vehicle>
    <vehicle id="597" depart="597.00">
        <route edges="2:0 0:1 1:3"/>
    </vehicle>
    <vehicle id="600" depart="600.00">
        <route edges="5:1 1:0"/>
    </vehicle>
    <vehicle id="602" depart="602.00">
        <route edges="1:0"/>
    </vehicle>
    <vehicle id="604" depart="604.00">
        <route edges="2:0 0:1 1:3"/>
    </vehicle>
    <vehicle id="607" depart="607.00">
        <route edges="2:0 0:1 1:5 5:6"/>
    </vehicle>
    <vehicle id="608" depart="608.00">
        <route edges="3:1 1:5 5:6"/>
    </vehicle>
    <vehicle id="612" depart="612.00">
        <route edges="7:3 3:1"/>
    </vehicle>
    <vehicle id="613" depart="613.00">
        <route edges="2:0 0:1 1:3 3:7"/>
    </vehicle>
    <vehicle id="614" depart="614.00">
        <route edges="7:3 3:1 1:5 5:6"/>
    </vehicle>
    <vehicle id="616" depart="616.00">
        <route edges="7:3 3:1 1:0 0:2"/>
    </vehicle>
    <vehicle id="618" depart="618.00">
        <route edges="2:0 0:1 1:5"/>
    </vehicle>
    <vehicle id="619" depart="619.00">
        <route edges="2:0 0:1 1:3"/>
    </vehicle>
    <vehicle id="622" depart="622.00">
        <route edges="0:1"/>
    </vehicle>
    <vehicle id="626" depart="626.00">
        <route edges="7:3 3:1 1:0"/>
    </vehicle>
    <vehicle id="628" depart="628.00">
        <route edges="3:1 1:0 0:2"/>
    </vehicle>
    <vehicle id="629" depart="629.00">
        <route edges="7:3 3:1 1:5 5:6"/>
    </vehicle>
    <vehicle id="630" depart="630.00">
        <route edges="7:3 3:1 1:5 5:6"/>
    </vehicle>
    <vehicle id="631" depart="631.00">
        <route edges="6:5 5:1 1:0 0:2"/>
    </vehicle>
    <vehicle id="632" depart="632.00">
        <route edges="7:3 3:1 1:0 0:2"/>
    </vehicle>
    <vehicle id="633" depart="633.00">
        <route edges="7:3 3:1 1:0 0:2"/>
    </vehicle>
    <vehicle id="634" depart="634.00">
        <route edges="6:5 5:1 1:0"/>
    </vehicle>
    <vehicle id="637" depart="637.00">
        <route edges="0:1 1:3 3:7"/>
    </vehicle>
    <vehicle id="638" depart="638.00">
        <route edges="7:3 3:1 1:0 0:2"/>
    </vehicle>
    <vehicle id="646" depart="646.00">
        <route edges="6:5 5:1 1:0"/>
    </vehicle>
    <vehicle id="648" depart="648.00">
        <route edges="7:3 3:1"/>
    </vehicle>
    <vehicle id="649" depart="649.00">
        <route edges="2:0 0:1"/>
    </vehicle>
    <vehicle id="650" depart="650.00">
        <route edges="0:1 1:5"/>
    </vehicle>
    <vehicle id="651" depart="651.00">
        <route edges="7:3 3:1 1:0 0:2"/>
    </vehicle>
    <vehicle id="652" depart="652.00">
        <route edges="2:0 0:1 1:3 3:7"/>
    </vehicle>
    <vehicle id="653" depart="653.00">
        <route edges="3:1 1:0 0:2"/>
    </vehicle>
    <vehicle id="655" depart="655.00">