<?xml version="1.0" encoding="UTF-8"?>

<!-- generated on Thu Feb 13 14:16:18 2014 by SUMO duarouter Version 0.18.0
<?xml version="1.0" encoding="UTF-8"?>

<configuration xmlns:xsi="http://www.w3.org/2001/XMLSchema-instance" xsi:noNamespaceSchemaLocation="http://sumo.sf.net/xsd/duarouterConfiguration.xsd">

    <input>
        <net-file value="twinT.net.xml"/>
        <trip-files value="experimentos/twinT.p0.7.8.trips.xml"/>
    </input>

    <output>
        <output-file value="experimentos/twinT.p0.7.8.rou.xml"/>
    </output>

    <processing>
        <ignore-errors value="true"/>
    </processing>

    <random_number>
        <random value="true"/>
    </random_number>

</configuration>
-->

<routes xmlns:xsi="http://www.w3.org/2001/XMLSchema-instance" xsi:noNamespaceSchemaLocation="http://sumo.sf.net/xsd/routes_file.xsd">
    <vehicle id="0" depart="0.00">
        <route edges="0:1 1:3"/>
    </vehicle>
    <vehicle id="4" depart="2.80">
        <route edges="5:1"/>
    </vehicle>
    <vehicle id="5" depart="3.50">
        <route edges="8:2 2:0 0:1 1:3 3:7"/>
    </vehicle>
    <vehicle id="7" depart="4.90">
        <route edges="10:9 9:0 0:2 2:8"/>
    </vehicle>
    <vehicle id="10" depart="7.00">
        <route edges="0:1 1:3"/>
    </vehicle>
    <vehicle id="11" depart="7.70">
        <route edges="7:3 3:1 1:0 0:9 9:10"/>
    </vehicle>
    <vehicle id="14" depart="9.80">
        <route edges="6:5 5:1 1:0 0:9"/>
    </vehicle>
    <vehicle id="15" depart="10.50">
        <route edges="7:3 3:1 1:0 0:2 2:8"/>
    </vehicle>
    <vehicle id="17" depart="11.90">
        <route edges="5:1 1:3 3:7"/>
    </vehicle>
    <vehicle id="18" depart="12.60">
        <route edges="8:2 2:0 0:1 1:3 3:7"/>
    </vehicle>
    <vehicle id="19" depart="13.30">
        <route edges="6:5 5:1 1:0"/>
    </vehicle>
    <vehicle id="22" depart="15.40">
        <route edges="7:3 3:1"/>
    </vehicle>
    <vehicle id="24" depart="16.80">
        <route edges="6:5 5:1 1:0 0:2"/>
    </vehicle>
    <vehicle id="29" depart="20.30">
        <route edges="5:1 1:0 0:2"/>
    </vehicle>
    <vehicle id="30" depart="21.00">
        <route edges="8:2 2:0 0:1 1:3 3:7"/>
    </vehicle>
    <vehicle id="32" depart="22.40">
        <route edges="8:2 2:0 0:9 9:10"/>
    </vehicle>
    <vehicle id="35" depart="24.50">
        <route edges="3:1 1:5 5:6"/>
    </vehicle>
    <vehicle id="36" depart="25.20">
        <route edges="8:2 2:0 0:1 1:5 5:6"/>
    </vehicle>
    <vehicle id="38" depart="26.60">
        <route edges="0:9 9:10"/>
    </vehicle>
    <vehicle id="39" depart="27.30">
        <route edges="6:5 5:1 1:3 3:7"/>
    </vehicle>
    <vehicle id="40" depart="28.00">
        <route edges="3:1"/>
    </vehicle>
    <vehicle id="45" depart="31.50">
        <route edges="6:5 5:1 1:3 3:7"/>
    </vehicle>
    <vehicle id="47" depart="32.90">
        <route edges="8:2 2:0 0:1 1:3 3:7"/>
    </vehicle>
    <vehicle id="48" depart="33.60">
        <route edges="8:2 2:0 0:1"/>
    </vehicle>
    <vehicle id="53" depart="37.10">
        <route edges="6:5 5:1 1:3"/>
    </vehicle>
    <vehicle id="57" depart="39.90">
        <route edges="5:1 1:0 0:9 9:10"/>
    </vehicle>
    <vehicle id="60" depart="42.00">
        <route edges="6:5 5:1 1:0 0:2"/>
    </vehicle>
    <vehicle id="62" depart="43.40">
        <route edges="0:1 1:3"/>
    </vehicle>
    <vehicle id="63" depart="44.10">
        <route edges="3:1"/>
    </vehicle>
    <vehicle id="65" depart="45.50">
        <route edges="2:0 0:9 9:10"/>
    </vehicle>
    <vehicle id="67" depart="46.90">
        <route edges="8:2 2:0 0:9"/>
    </vehicle>
    <vehicle id="70" depart="49.00">
        <route edges="3:1 1:0 0:2"/>
    </vehicle>
    <vehicle id="77" depart="53.90">
        <route edges="7:3 3:1"/>
    </vehicle>
    <vehicle id="78" depart="54.60">
        <route edges="0:1 1:5 5:6"/>
    </vehicle>
    <vehicle id="79" depart="55.30">
        <route edges="2:0 0:1 1:5 5:6"/>
    </vehicle>
    <vehicle id="81" depart="56.70">
        <route edges="10:9 9:0 0:2 2:8"/>
    </vehicle>
    <vehicle id="83" depart="58.10">
        <route edges="9:0 0:1 1:3 3:7"/>
    </vehicle>
    <vehicle id="84" depart="58.80">
        <route edges="3:1 1:0 0:2 2:8"/>
    </vehicle>
    <vehicle id="86" depart="60.20">
        <route edges="8:2 2:0 0:1 1:3 3:7"/>
    </vehicle>
    <vehicle id="89" depart="62.30">
        <route edges="7:3 3:1 1:0 0:2 2:8"/>
    </vehicle>
    <vehicle id="90" depart="63.00">
        <route edges="5:1 1:0 0:2"/>
    </vehicle>
    <vehicle id="99" depart="69.30">
        <route edges="9:0 0:2 2:8"/>
    </vehicle>
    <vehicle id="101" depart="70.70">
        <route edges="10:9 9:0 0:2"/>
    </vehicle>
    <vehicle id="104" depart="72.80">
        <route edges="5:1 1:0 0:2 2:8"/>
    </vehicle>
    <vehicle id="106" depart="74.20">
        <route edges="7:3 3:1"/>
    </vehicle>
    <vehicle id="108" depart="75.60">
        <route edges="1:0 0:2"/>
    </vehicle>
    <vehicle id="110" depart="77.00">
        <route edges="7:3 3:1 1:0 0:9 9:10"/>
    </vehicle>
    <vehicle id="113" depart="79.10">
        <route edges="7:3 3:1 1:0 0:2 2:8"/>
    </vehicle>
    <vehicle id="115" depart="80.50">
        <route edges="7:3 3:1 1:0 0:9 9:10"/>
    </vehicle>
    <vehicle id="118" depart="82.60">
        <route edges="5:1"/>
    </vehicle>
    <vehicle id="119" depart="83.30">
        <route edges="3:1 1:0 0:2 2:8"/>
    </vehicle>
    <vehicle id="120" depart="84.00">
        <route edges="8:2 2:0 0:9"/>
    </vehicle>
    <vehicle id="123" depart="86.10">
        <route edges="8:2 2:0 0:1 1:3 3:7"/>
    </vehicle>
    <vehicle id="124" depart="86.80">
        <route edges="10:9 9:0 0:1 1:3 3:7"/>
    </vehicle>
    <vehicle id="125" depart="87.50">
        <route edges="8:2 2:0 0:1 1:3"/>
    </vehicle>
    <vehicle id="126" depart="88.20">
        <route edges="0:1 1:3 3:7"/>
    </vehicle>
    <vehicle id="127" depart="88.90">
        <route edges="10:9 9:0 0:1 1:3 3:7"/>
    </vehicle>
    <vehicle id="128" depart="89.60">
        <route edges="10:9 9:0 0:1 1:5 5:6"/>
    </vehicle>
    <vehicle id="129" depart="90.30">
        <route edges="7:3 3:1 1:0 0:9 9:10"/>
    </vehicle>
    <vehicle id="131" depart="91.70">
        <route edges="3:1 1:0 0:9 9:10"/>
    </vehicle>
    <vehicle id="132" depart="92.40">
        <route edges="8:2 2:0"/>
    </vehicle>
    <vehicle id="135" depart="94.50">
        <route edges="7:3 3:1 1:5 5:6"/>
    </vehicle>
    <vehicle id="137" depart="95.90">
        <route edges="1:0 0:9 9:10"/>
    </vehicle>
    <vehicle id="139" depart="97.30">
        <route edges="8:2 2:0 0:1 1:3 3:7"/>
    </vehicle>
    <vehicle id="140" depart="98.00">
        <route edges="1:3"/>
    </vehicle>
    <vehicle id="143" depart="100.10">
        <route edges="8:2 2:0"/>
    </vehicle>
    <vehicle id="145" depart="101.50">
        <route edges="3:1 1:0 0:2 2:8"/>
    </vehicle>
    <vehicle id="146" depart="102.20">
        <route edges="10:9 9:0 0:1 1:5 5:6"/>
    </vehicle>
    <vehicle id="149" depart="104.30">
        <route edges="0:2 2:8"/>
    </vehicle>
    <vehicle id="150" depart="105.00">
        <route edges="8:2 2:0"/>
    </vehicle>
    <vehicle id="153" depart="107.10">
        <route edges="7:3 3:1 1:0 0:9 9:10"/>
    </vehicle>
    <vehicle id="154" depart="107.80">
        <route edges="9:0 0:1 1:3"/>
    </vehicle>
    <vehicle id="156" depart="109.20">
        <route edges="7:3 3:1 1:0"/>
    </vehicle>
    <vehicle id="162" depart="113.40">
        <route edges="8:2 2:0 0:1 1:3 3:7"/>
    </vehicle>
    <vehicle id="168" depart="117.60">
        <route edges="10:9 9:0 0:1 1:5 5:6"/>
    </vehicle>
    <vehicle id="171" depart="119.70">
        <route edges="10:9 9:0 0:1 1:5 5:6"/>
    </vehicle>
    <vehicle id="172" depart="120.40">
        <route edges="7:3 3:1 1:0 0:9 9:10"/>
    </vehicle>
    <vehicle id="174" depart="121.80">
        <route edges="2:0 0:1 1:5 5:6"/>
    </vehicle>
    <vehicle id="176" depart="123.20">
        <route edges="5:1 1:0 0:2"/>
    </vehicle>
    <vehicle id="177" depart="123.90">
        <route edges="1:3 3:7"/>
    </vehicle>
    <vehicle id="178" depart="124.60">
        <route edges="0:1 1:3 3:7"/>
    </vehicle>
    <vehicle id="180" depart="126.00">
        <route edges="5:1 1:0 0:2 2:8"/>
    </vehicle>
    <vehicle id="181" depart="126.70">
        <route edges="2:0 0:1 1:3 3:7"/>
    </vehicle>
    <vehicle id="184" depart="128.80">
        <route edges="10:9 9:0 0:1 1:3"/>
    </vehicle>
    <vehicle id="185" depart="129.50">
        <route edges="10:9 9:0 0:1 1:3 3:7"/>
    </vehicle>
    <vehicle id="186" depart="130.20">
        <route edges="8:2 2:0"/>
    </vehicle>
    <vehicle id="187" depart="130.90">
        <route edges="10:9 9:0 0:1 1:3 3:7"/>
    </vehicle>
    <vehicle id="189" depart="132.30">
        <route edges="0:1 1:3 3:7"/>
    </vehicle>
    <vehicle id="191" depart="133.70">
        <route edges="7:3 3:1 1:0 0:2 2:8"/>
    </vehicle>
    <vehicle id="192" depart="134.40">
        <route edges="3:1 1:0 0:2"/>
    </vehicle>
    <vehicle id="194" depart="135.80">
        <route edges="3:1 1:0 0:2"/>
    </vehicle>
    <vehicle id="197" depart="137.90">
        <route edges="8:2 2:0 0:1 1:3 3:7"/>
    </vehicle>
    <vehicle id="198" depart="138.60">
        <route edges="7:3 3:1 1:0"/>
    </vehicle>
    <vehicle id="200" depart="140.00">
        <route edges="8:2 2:0 0:1"/>
    </vehicle>
    <vehicle id="201" depart="140.70">
        <route edges="6:5 5:1 1:0 0:9 9:10"/>
    </vehicle>
    <vehicle id="204" depart="142.80">
        <route edges="1:3 3:7"/>
    </vehicle>
    <vehicle id="211" depart="147.70">
        <route edges="10:9 9:0 0:2 2:8"/>
    </vehicle>
    <vehicle id="213" depart="149.10">
        <route edges="6:5 5:1 1:3 3:7"/>
    </vehicle>
    <vehicle id="214" depart="149.80">
        <route edges="7:3 3:1 1:0 0:2"/>
    </vehicle>
    <vehicle id="216" depart="151.20">
        <route edges="10:9 9:0 0:1 1:3 3:7"/>
    </vehicle>
    <vehicle id="218" depart="152.60">
        <route edges="10:9 9:0 0:1"/>
    </vehicle>
    <vehicle id="222" depart="155.40">
        <route edges="8:2 2:0"/>
    </vehicle>
    <vehicle id="223" depart="156.10">
        <route edges="10:9 9:0 0:2"/>
    </vehicle>
    <vehicle id="226" depart="158.20">
        <route edges="0:1 1:3 3:7"/>
    </vehicle>
    <vehicle id="230" depart="161.00">
        <route edges="6:5 5:1 1:3 3:7"/>
    </vehicle>
    <vehicle id="231" depart="161.70">
        <route edges="5:1 1:3 3:7"/>
    </vehicle>
    <vehicle id="232" depart="162.40">
        <route edges="0:2 2:8"/>
    </vehicle>
    <vehicle id="233" depart="163.10">
        <route edges="8:2 2:0 0:9 9:10"/>
    </vehicle>
    <vehicle id="235" depart="164.50">
        <route edges="7:3 3:1 1:0 0:2"/>
    </vehicle>
    <vehicle id="241" depart="168.70">
        <route edges="2:0"/>
    </vehicle>
    <vehicle id="244" depart="170.80">
        <route edges="10:9 9:0 0:1 1:3"/>
    </vehicle>
    <vehicle id="245" depart="171.50">
        <route edges="1:3"/>
    </vehicle>
    <vehicle id="247" depart="172.90">
        <route edges="0:2 2:8"/>
    </vehicle>
    <vehicle id="248" depart="173.60">
        <route edges="8:2 2:0 0:1 1:3"/>
    </vehicle>
    <vehicle id="249" depart="174.30">
        <route edges="9:0 0:1 1:3"/>
    </vehicle>
    <vehicle id="250" depart="175.00">
        <route edges="6:5 5:1 1:0 0:2 2:8"/>
    </vehicle>
    <vehicle id="255" depart="178.50">
        <route edges="8:2 2:0 0:1"/>
    </vehicle>
    <vehicle id="256" depart="179.20">
        <route edges="9:0 0:2 2:8"/>
    </vehicle>
    <vehicle id="259" depart="181.30">
        <route edges="6:5 5:1 1:3 3:7"/>
    </vehicle>
    <vehicle id="261" depart="182.70">
        <route edges="1:0 0:9"/>
    </vehicle>
    <vehicle id="263" depart="184.10">
        <route edges="3:1 1:0 0:2 2:8"/>
    </vehicle>
    <vehicle id="270" depart="189.00">
        <route edges="6:5 5:1 1:0 0:2"/>
    </vehicle>
    <vehicle id="271" depart="189.70">
        <route edges="8:2 2:0 0:1 1:5 5:6"/>
    </vehicle>
    <vehicle id="273" depart="191.10">
        <route edges="5:1 1:3 3:7"/>
    </vehicle>
    <vehicle id="275" depart="192.50">
        <route edges="7:3 3:1 1:0 0:9"/>
    </vehicle>
    <vehicle id="276" depart="193.20">
        <route edges="2:0 0:1 1:5 5:6"/>
    </vehicle>
    <vehicle id="277" depart="193.90">
        <route edges="8:2 2:0 0:9 9:10"/>
    </vehicle>
    <vehicle id="280" depart="196.00">
        <route edges="1:3 3:7"/>
    </vehicle>
    <vehicle id="283" depart="198.10">
        <route edges="7:3 3:1 1:0"/>
    </vehicle>
    <vehicle id="284" depart="198.80">
        <route edges="0:2 2:8"/>
    </vehicle>
    <vehicle id="285" depart="199.50">
        <route edges="7:3 3:1 1:0 0:2 2:8"/>
    </vehicle>
    <vehicle id="286" depart="200.20">
        <route edges="7:3 3:1 1:0 0:2 2:8"/>
    </vehicle>
    <vehicle id="287" depart="200.90">
        <route edges="3:1 1:0 0:2 2:8"/>
    </vehicle>
    <vehicle id="289" depart="202.30">
        <route edges="1:3 3:7"/>
    </vehicle>
    <vehicle id="291" depart="203.70">
        <route edges="0:2"/>
    </vehicle>
    <vehicle id="297" depart="207.90">
        <route edges="3:1 1:0"/>
    </vehicle>
    <vehicle id="298" depart="208.60">
        <route edges="6:5 5:1 1:3"/>
    </vehicle>
    <vehicle id="300" depart="210.00">
        <route edges="3:1 1:0 0:9 9:10"/>
    </vehicle>
    <vehicle id="301" depart="210.70">
        <route edges="7:3 3:1 1:0 0:2 2:8"/>
    </vehicle>
    <vehicle id="302" depart="211.40">
        <route edges="3:1 1:0 0:9 9:10"/>
    </vehicle>
    <vehicle id="304" depart="212.80">
        <route edges="8:2 2:0 0:1 1:3 3:7"/>
    </vehicle>
    <vehicle id="307" depart="214.90">
        <route edges="6:5 5:1 1:0 0:2 2:8"/>
    </vehicle>
    <vehicle id="308" depart="215.60">
        <route edges="2:0 0:1 1:3 3:7"/>
    </vehicle>
    <vehicle id="309" depart="216.30">
        <route edges="7:3 3:1 1:5 5:6"/>
    </vehicle>
    <vehicle id="310" depart="217.00">
        <route edges="10:9 9:0 0:1 1:3"/>
    </vehicle>
    <vehicle id="311" depart="217.70">
        <route edges="7:3 3:1 1:0 0:9 9:10"/>
    </vehicle>
    <vehicle id="315" depart="220.50">
        <route edges="5:1 1:0 0:2 2:8"/>
    </vehicle>
    <vehicle id="318" depart="222.60">
        <route edges="0:9 9:10"/>
    </vehicle>
    <vehicle id="320" depart="224.00">
        <route edges="0:1 1:3 3:7"/>
    </vehicle>
    <vehicle id="322" depart="225.40">
        <route edges="0:2 2:8"/>
    </vehicle>
    <vehicle id="324" depart="226.80">
        <route edges="7:3 3:1 1:5 5:6"/>
    </vehicle>
    <vehicle id="325" depart="227.50">
        <route edges="8:2 2:0 0:1"/>
    </vehicle>
    <vehicle id="326" depart="228.20">
        <route edges="2:0 0:1 1:3 3:7"/>
    </vehicle>
    <vehicle id="329" depart="230.30">
        <route edges="3:1 1:0"/>
    </vehicle>
    <vehicle id="331" depart="231.70">
        <route edges="2:0 0:9 9:10"/>
    </vehicle>
    <vehicle id="332" depart="232.40">
        <route edges="7:3 3:1"/>
    </vehicle>
    <vehicle id="335" depart="234.50">
        <route edges="6:5 5:1 1:0"/>
    </vehicle>
    <vehicle id="336" depart="235.20">
        <route edges="9:0 0:2"/>
    </vehicle>
    <vehicle id="337" depart="235.90">
        <route edges="2:0 0:1 1:3 3:7"/>
    </vehicle>
    <vehicle id="339" depart="237.30">
        <route edges="3:1 1:0 0:2 2:8"/>
    </vehicle>
    <vehicle id="340" depart="238.00">
        <route edges="10:9 9:0 0:2 2:8"/>
    </vehicle>
    <vehicle id="342" depart="239.40">
        <route edges="7:3 3:1 1:0 0:2 2:8"/>
    </vehicle>
    <vehicle id="347" depart="242.90">
        <route edges="0:2"/>
    </vehicle>
    <vehicle id="349" depart="244.30">
        <route edges="2:0 0:1 1:5 5:6"/>
    </vehicle>
    <vehicle id="355" depart="248.50">
        <route edges="0:2 2:8"/>
    </vehicle>
    <vehicle id="359" depart="251.30">
        <route edges="8:2 2:0"/>
    </vehicle>
    <vehicle id="363" depart="254.10">
        <route edges="6:5 5:1 1:0 0:2 2:8"/>
    </vehicle>
    <vehicle id="364" depart="254.80">
        <route edges="3:1 1:0 0:2 2:8"/>
    </vehicle>
    <vehicle id="365" depart="255.50">
        <route edges="5:1 1:0 0:2"/>
    </vehicle>
    <vehicle id="366" depart="256.20">
        <route edges="8:2 2:0"/>
    </vehicle>
    <vehicle id="369" depart="258.30">
        <route edges="6:5 5:1 1:3 3:7"/>
    </vehicle>
    <vehicle id="371" depart="259.70">
        <route edges="7:3 3:1 1:5 5:6"/>
    </vehicle>
    <vehicle id="372" depart="260.40">
        <route edges="7:3 3:1 1:0 0:9 9:10"/>
    </vehicle>
    <vehicle id="374" depart="261.80">
        <route edges="10:9 9:0 0:1"/>
    </vehicle>
    <vehicle id="375" depart="262.50">
        <route edges="2:0 0:1 1:5 5:6"/>
    </vehicle>
    <vehicle id="380" depart="266.00">
        <route edges="1:0 0:9 9:10"/>
    </vehicle>
    <vehicle id="383" depart="268.10">
        <route edges="7:3 3:1 1:0 0:2 2:8"/>
    </vehicle>
    <vehicle id="384" depart="268.80">
        <route edges="7:3 3:1 1:0 0:2"/>
    </vehicle>
    <vehicle id="385" depart="269.50">
        <route edges="10:9 9:0 0:2"/>
    </vehicle>
    <vehicle id="388" depart="271.60">
        <route edges="6:5 5:1 1:3 3:7"/>
    </vehicle>
    <vehicle id="389" depart="272.30">
        <route edges="7:3 3:1 1:0 0:9"/>
    </vehicle>
    <vehicle id="390" depart="273.00">
        <route edges="7:3 3:1 1:0 0:2 2:8"/>
    </vehicle>
    <vehicle id="392" depart="274.40">
        <route edges="7:3 3:1"/>
    </vehicle>
    <vehicle id="393" depart="275.10">
        <route edges="7:3 3:1 1:0 0:2"/>
    </vehicle>
    <vehicle id="394" depart="275.80">
        <route edges="5:1 1:0 0:2"/>
    </vehicle>
    <vehicle id="395" depart="276.50">
        <route edges="8:2 2:0 0:1 1:3 3:7"/>
    </vehicle>
    <vehicle id="397" depart="277.90">
        <route edges="8:2 2:0 0:1"/>
    </vehicle>
    <vehicle id="398" depart="278.60">
        <route edges="3:1 1:5"/>
    </vehicle>
    <vehicle id="399" depart="279.30">
        <route edges="0:2 2:8"/>
    </vehicle>
    <vehicle id="400" depart="280.00">
        <route edges="8:2 2:0"/>
    </vehicle>
    <vehicle id="402" depart="281.40">
        <route edges="7:3 3:1 1:0 0:2 2:8"/>
    </vehicle>
    <vehicle id="406" depart="284.20">
        <route edges="7:3 3:1 1:0 0:2"/>
    </vehicle>
    <vehicle id="407" depart="284.90">
        <route edges="3:1 1:0 0:9"/>
    </vehicle>
    <vehicle id="409" depart="286.30">
        <route edges="8:2 2:0 0:1 1:3 3:7"/>
    </vehicle>
    <vehicle id="410" depart="287.00">
        <route edges="3:1 1:0 0:9"/>
    </vehicle>
    <vehicle id="411" depart="287.70">
        <route edges="6:5 5:1 1:0 0:9 9:10"/>
    </vehicle>
    <vehicle id="412" depart="288.40">
        <route edges="1:0 0:2 2:8"/>
    </vehicle>
    <vehicle id="418" depart="292.60">
        <route edges="7:3 3:1 1:0"/>
    </vehicle>
    <vehicle id="419" depart="293.30">
        <route edges="7:3 3:1 1:5"/>
    </vehicle>
    <vehicle id="421" depart="294.70">
        <route edges="9:0 0:2 2:8"/>
    </vehicle>
    <vehicle id="427" depart="298.90">
        <route edges="7:3 3:1"/>
    </vehicle>
    <vehicle id="434" depart="303.80">
        <route edges="9:0 0:1 1:3 3:7"/>
    </vehicle>
    <vehicle id="436" depart="305.20">
        <route edges="1:3"/>
    </vehicle>
    <vehicle id="438" depart="306.60">
        <route edges="6:5 5:1"/>
    </vehicle>
    <vehicle id="439" depart="307.30">
        <route edges="10:9 9:0 0:1 1:3"/>
    </vehicle>
    <vehicle id="444" depart="310.80">
        <route edges="1:3"/>
    </vehicle>
    <vehicle id="445" depart="311.50">
        <route edges="2:0 0:1 1:5 5:6"/>
    </vehicle>
    <vehicle id="447" depart="312.90">
        <route edges="1:3 3:7"/>
    </vehicle>
    <vehicle id="451" depart="315.70">
        <route edges="7:3 3:1 1:0 0:9"/>
    </vehicle>
    <vehicle id="452" depart="316.40">
        <route edges="2:0 0:1 1:5"/>
    </vehicle>
    <vehicle id="454" depart="317.80">
        <route edges="8:2 2:0 0:1 1:5 5:6"/>
    </vehicle>
    <vehicle id="455" depart="318.50">
        <route edges="8:2 2:0 0:1"/>
    </vehicle>
    <vehicle id="456" depart="319.20">
        <route edges="8:2 2:0 0:1 1:3"/>
    </vehicle>
    <vehicle id="457" depart="319.90">
        <route edges="7:3 3:1 1:0 0:2"/>
    </vehicle>
    <vehicle id="458" depart="320.60">
        <route edges="9:0 0:1 1:5"/>
    </vehicle>
    <vehicle id="460" depart="322.00">
        <route edges="10:9 9:0 0:1 1:3 3:7"/>
    </vehicle>
    <vehicle id="461" depart="322.70">
        <route edges="10:9 9:0 0:2 2:8"/>
    </vehicle>
    <vehicle id="464" depart="324.80">
        <route edges="10:9 9:0 0:2 2:8"/>
    </vehicle>
    <vehicle id="466" depart="326.20">
        <route edges="3:1 1:0 0:2"/>
    </vehicle>
    <vehicle id="472" depart="330.40">
        <route edges="9:0 0:1 1:3"/>
    </vehicle>
    <vehicle id="473" depart="331.10">
        <route edges="7:3 3:1 1:0 0:9"/>
    </vehicle>
    <vehicle id="474" depart="331.80">
        <route edges="7:3 3:1 1:0 0:2 2:8"/>
    </vehicle>
    <vehicle id="475" depart="332.50">
        <route edges="6:5 5:1 1:0 0:9 9:10"/>
    </vehicle>
    <vehicle id="477" depart="333.90">
        <route edges="8:2 2:0 0:1 1:3 3:7"/>
    </vehicle>
    <vehicle id="479" depart="335.30">
        <route edges="7:3 3:1 1:0 0:2 2:8"/>
    </vehicle>
    <vehicle id="481" depart="336.70">
        <route edges="7:3 3:1 1:5"/>
    </vehicle>
    <vehicle id="482" depart="337.40">
        <route edges="10:9 9:0 0:1 1:5 5:6"/>
    </vehicle>
    <vehicle id="484" depart="338.80">
        <route edges="2:0 0:1 1:3 3:7"/>
    </vehicle>
    <vehicle id="487" depart="340.90">
        <route edges="8:2 2:0"/>
    </vehicle>
    <vehicle id="490" depart="343.00">
        <route edges="8:2 2:0 0:1 1:3 3:7"/>
    </vehicle>
    <vehicle id="492" depart="344.40">
        <route edges="7:3 3:1 1:0"/>
    </vehicle>
    <vehicle id="493" depart="345.10">
        <route edges="7:3 3:1 1:0 0:9 9:10"/>
    </vehicle>
    <vehicle id="494" depart="345.80">
        <route edges="5:1 1:0 0:9"/>
    </vehicle>
    <vehicle id="496" depart="347.20">
        <route edges="1:5 5:6"/>
    </vehicle>
    <vehicle id="497" depart="347.90">
        <route edges="7:3 3:1 1:0 0:2 2:8"/>
    </vehicle>
    <vehicle id="498" depart="348.60">
        <route edges="5:1 1:0 0:2 2:8"/>
    </vehicle>
    <vehicle id="501" depart="350.70">
        <route edges="3:1 1:5"/>
    </vehicle>
    <vehicle id="502" depart="351.40">
        <route edges="2:0 0:1 1:3 3:7"/>
    </vehicle>
    <vehicle id="503" depart="352.10">
        <route edges="8:2 2:0 0:1 1:3 3:7"/>
    </vehicle>
    <vehicle id="504" depart="352.80">
        <route edges="7:3 3:1"/>
    </vehicle>
    <vehicle id="505" depart="353.50">
        <route edges="5:1 1:0 0:2 2:8"/>
    </vehicle>
    <vehicle id="507" depart="354.90">
        <route edges="7:3 3:1 1:0 0:2 2:8"/>
    </vehicle>
    <vehicle id="509" depart="356.30">
        <route edges="10:9 9:0 0:1 1:5"/>
    </vehicle>
    <vehicle id="517" depart="361.90">
        <route edges="5:1 1:0 0:2"/>
    </vehicle>
    <vehicle id="518" depart="362.60">
        <route edges="2:0 0:1 1:3"/>
    </vehicle>
    <vehicle id="519" depart="363.30">
        <route edges="2:0 0:1 1:3"/>
    </vehicle>
    <vehicle id="520" depart="364.00">
        <route edges="7:3 3:1 1:0 0:2 2:8"/>
    </vehicle>
    <vehicle id="522" depart="365.40">
        <route edges="8:2 2:0 0:1 1:3 3:7"/>
    </vehicle>
    <vehicle id="523" depart="366.10">
        <route edges="1:3 3:7"/>
    </vehicle>
    <vehicle id="525" depart="367.50">
        <route edges="10:9 9:0 0:1 1:3 3:7"/>
    </vehicle>
    <vehicle id="529" depart="370.30">
        <route edges="0:1 1:5 5:6"/>
    </vehicle>
    <vehicle id="531" depart="371.70">
        <route edges="7:3 3:1 1:0 0:2"/>
    </vehicle>
    <vehicle id="537" depart="375.90">
        <route edges="7:3 3:1 1:0 0:2 2:8"/>
    </vehicle>
    <vehicle id="539" depart="377.30">
        <route edges="6:5 5:1 1:0 0:9 9:10"/>
    </vehicle>
    <vehicle id="540" depart="378.00">
        <route edges="2:0 0:1 1:5"/>
    </vehicle>
    <vehicle id="544" depart="380.80">
        <route edges="1:0 0:9"/>
    </vehicle>
    <vehicle id="545" depart="381.50">
        <route edges="6:5 5:1 1:0 0:2 2:8"/>
    </vehicle>
    <vehicle id="547" depart="382.90">
        <route edges="10:9 9:0 0:1 1:3 3:7"/>
    </vehicle>
    <vehicle id="549" depart="384.30">
        <route edges="7:3 3:1 1:0 0:2"/>
    </vehicle>
    <vehicle id="552" depart="386.40">
        <route edges="6:5 5:1 1:3 3:7"/>
    </vehicle>
    <vehicle id="553" depart="387.10">
        <route edges="2:0 0:1 1:3 3:7"/>
    </vehicle>
    <vehicle id="554" depart="387.80">
        <route edges="1:5 5:6"/>
    </vehicle>
    <vehicle id="555" depart="388.50">
        <route edges="10:9 9:0 0:2 2:8"/>
    </vehicle>
    <vehicle id="557" depart="389.90">
        <route edges="2:0 0:1 1:5"/>
    </vehicle>
    <vehicle id="558" depart="390.60">
        <route edges="9:0 0:1"/>
    </vehicle>
    <vehicle id="569" depart="398.30">
        <route edges="6:5 5:1 1:0 0:2 2:8"/>
    </vehicle>
    <vehicle id="574" depart="401.80">
        <route edges="2:0"/>
    </vehicle>
    <vehicle id="578" depart="404.60">
        <route edges="3:1 1:5 5:6"/>
    </vehicle>
    <vehicle id="586" depart="410.20">
        <route edges="3:1 1:0 0:2 2:8"/>
    </vehicle>
    <vehicle id="589" depart="412.30">
        <route edges="7:3 3:1 1:0 0:2 2:8"/>
    </vehicle>
    <vehicle id="591" depart="413.70">
        <route edges="10:9 9:0 0:2 2:8"/>
    </vehicle>
    <vehicle id="593" depart="415.10">
        <route edges="8:2 2:0 0:9 9:10"/>
    </vehicle>
    <vehicle id="594" depart="415.80">
        <route edges="5:1"/>
    </vehicle>
    <vehicle id="596" depart="417.20">
        <route edges="7:3 3:1 1:5"/>
    </vehicle>
    <vehicle id="598" depart="418.60">
        <route edges="5:1 1:3 3:7"/>
    </vehicle>
    <vehicle id="601" depart="420.70">
        <route edges="7:3 3:1"/>
    </vehicle>
    <vehicle id="602" depart="421.40">
        <route edges="2:0 0:9"/>
    </vehicle>
    <vehicle id="608" depart="425.60">
        <route edges="10:9 9:0 0:2 2:8"/>
    </vehicle>
    <vehicle id="609" depart="426.30">
        <route edges="7:3 3:1 1:0 0:2 2:8"/>
    </vehicle>
    <vehicle id="610" depart="427.00">
        <route edges="0:2"/>
    </vehicle>
    <vehicle id="611" depart="427.70">
        <route edges="7:3 3:1 1:5 5:6"/>
    </vehicle>
    <vehicle id="612" depart="428.40">
        <route edges="3:1"/>
    </vehicle>
    <vehicle id="614" depart="429.80">
        <route edges="7:3 3:1 1:0 0:2 2:8"/>
    </vehicle>
    <vehicle id="615" depart="430.50">
        <route edges="8:2 2:0 0:1 1:3"/>
    </vehicle>
    <vehicle id="616" depart="431.20">
        <route edges="10:9 9:0 0:2 2:8"/>
    </vehicle>
    <vehicle id="617" depart="431.90">
        <route edges="1:0 0:2"/>
    </vehicle>
    <vehicle id="619" depart="433.30">
        <route edges="8:2 2:0 0:1 1:3"/>
    </vehicle>
    <vehicle id="621" depart="434.70">
        <route edges="8:2 2:0 0:1 1:5"/>
    </vehicle>
    <vehicle id="625" depart="437.50">
        <route edges="1:0 0:2 2:8"/>
    </vehicle>
    <vehicle id="634" depart="443.80">
        <route edges="1:0 0:2"/>
    </vehicle>
    <vehicle id="637" depart="445.90">
        <route edges="1:5 5:6"/>
    </vehicle>
    <vehicle id="640" depart="448.00">
        <route edges="8:2 2:0 0:1 1:5 5:6"/>
    </vehicle>
    <vehicle id="641" depart="448.70">
        <route edges="10:9 9:0 0:1 1:3 3:7"/>
    </vehicle>
    <vehicle id="642" depart="449.40">
        <route edges="0:1 1:3"/>
    </vehicle>
    <vehicle id="643" depart="450.10">
        <route edges="9:0"/>
    </vehicle>
    <vehicle id="644" depart="450.80">
        <route edges="3:1 1:5 5:6"/>
    </vehicle>
    <vehicle id="651" depart="455.70">
        <route edges="10:9 9:0 0:1 1:3 3:7"/>
    </vehicle>
    <vehicle id="657" depart="459.90">
        <route edges="5:1 1:0 0:9"/>
    </vehicle>
    <vehicle id="659" depart="461.30">
        <route edges="3:1 1:0 0:9"/>
    </vehicle>
    <vehicle id="660" depart="462.00">
        <route edges="8:2 2:0 0:1 1:3 3:7"/>
    </vehicle>
    <vehicle id="662" depart="463.40">
        <route edges="2:0 0:1 1:3"/>
    </vehicle>
    <vehicle id="664" depart="464.80">
        <route edges="9:0 0:1 1:5"/>
    </vehicle>
    <vehicle id="668" depart="467.60">
        <route edges="10:9 9:0 0:2 2:8"/>
    </vehicle>
    <vehicle id="673" depart="471.10">
        <route edges="8:2 2:0 0:1 1:3"/>
    </vehicle>
    <vehicle id="674" depart="471.80">
        <route edges="3:1 1:0 0:2"/>
    </vehicle>
    <vehicle id="675" depart="472.50">
        <route edges="7:3 3:1 1:0 0:2"/>
    </vehicle>
    <vehicle id="676" depart="473.20">
        <route edges="7:3 3:1 1:0 0:9 9:10"/>
    </vehicle>
    <vehicle id="677" depart="473.90">
        <route edges="7:3 3:1 1:0 0:9"/>
    </vehicle>
    <vehicle id="678" depart="474.60">
        <route edges="3:1 1:0 0:2 2:8"/>
    </vehicle>
    <vehicle id="679" depart="475.30">
        <route edges="8:2 2:0 0:1 1:3 3:7"/>
    </vehicle>
    <vehicle id="680" depart="476.00">
        <route edges="9:0 0:2 2:8"/>
    </vehicle>
    <vehicle id="681" depart="476.70">
        <route edges="9:0 0:1 1:3 3:7"/>
    </vehicle>
    <vehicle id="686" depart="480.20">
        <route edges="7:3 3:1 1:0 0:2 2:8"/>
    </vehicle>
    <vehicle id="687" depart="480.90">
        <route edges="9:0 0:2 2:8"/>