<?xml version="1.0" encoding="UTF-8"?>

<!-- generated on Thu Feb 13 14:14:38 2014 by SUMO duarouter Version 0.18.0
<?xml version="1.0" encoding="UTF-8"?>

<configuration xmlns:xsi="http://www.w3.org/2001/XMLSchema-instance" xsi:noNamespaceSchemaLocation="http://sumo.sf.net/xsd/duarouterConfiguration.xsd">

    <input>
        <net-file value="twinT.net.xml"/>
        <trip-files value="experimentos/twinT.p0.1.6.trips.xml"/>
    </input>

    <output>
        <output-file value="experimentos/twinT.p0.1.6.rou.xml"/>
    </output>

    <processing>
        <ignore-errors value="true"/>
    </processing>

    <random_number>
        <random value="true"/>
    </random_number>

</configuration>
-->

<routes xmlns:xsi="http://www.w3.org/2001/XMLSchema-instance" xsi:noNamespaceSchemaLocation="http://sumo.sf.net/xsd/routes_file.xsd">
    <vehicle id="1" depart="0.10">
        <route edges="7:3 3:1 1:0 0:2 2:8"/>
    </vehicle>
    <vehicle id="3" depart="0.30">
        <route edges="8:2 2:0 0:1 1:5 5:6"/>
    </vehicle>
    <vehicle id="6" depart="0.60">
        <route edges="0:1 1:3"/>
    </vehicle>
    <vehicle id="7" depart="0.70">
        <route edges="1:0 0:2 2:8"/>
    </vehicle>
    <vehicle id="10" depart="1.00">
        <route edges="7:3 3:1 1:0 0:2 2:8"/>
    </vehicle>
    <vehicle id="12" depart="1.20">
        <route edges="7:3 3:1 1:0 0:2 2:8"/>
    </vehicle>
    <vehicle id="13" depart="1.30">
        <route edges="6:5 5:1 1:0 0:9 9:10"/>
    </vehicle>
    <vehicle id="17" depart="1.70">
        <route edges="7:3 3:1 1:0 0:2 2:8"/>
    </vehicle>
    <vehicle id="19" depart="1.90">
        <route edges="5:1 1:0 0:2 2:8"/>
    </vehicle>
    <vehicle id="20" depart="2.00">
        <route edges="3:1 1:0 0:9 9:10"/>
    </vehicle>
    <vehicle id="23" depart="2.30">
        <route edges="5:1 1:3 3:7"/>
    </vehicle>
    <vehicle id="28" depart="2.80">
        <route edges="1:3 3:7"/>
    </vehicle>
    <vehicle id="31" depart="3.10">
        <route edges="7:3 3:1 1:0 0:2 2:8"/>
    </vehicle>
    <vehicle id="33" depart="3.30">
        <route edges="9:0 0:1 1:3 3:7"/>
    </vehicle>
    <vehicle id="35" depart="3.50">
        <route edges="1:3 3:7"/>
    </vehicle>
    <vehicle id="37" depart="3.70">
        <route edges="8:2 2:0 0:1 1:3 3:7"/>
    </vehicle>
    <vehicle id="38" depart="3.80">
        <route edges="2:0 0:1 1:5 5:6"/>
    </vehicle>
    <vehicle id="39" depart="3.90">
        <route edges="1:3"/>
    </vehicle>
    <vehicle id="42" depart="4.20">
        <route edges="1:0 0:9 9:10"/>
    </vehicle>
    <vehicle id="46" depart="4.60">
        <route edges="6:5 5:1"/>
    </vehicle>
    <vehicle id="47" depart="4.70">
        <route edges="5:1 1:3 3:7"/>
    </vehicle>
    <vehicle id="48" depart="4.80">
        <route edges="8:2 2:0 0:1 1:3 3:7"/>
    </vehicle>
    <vehicle id="49" depart="4.90">
        <route edges="0:2 2:8"/>
    </vehicle>
    <vehicle id="54" depart="5.40">
        <route edges="10:9 9:0 0:2"/>
    </vehicle>
    <vehicle id="56" depart="5.60">
        <route edges="7:3 3:1 1:0 0:2 2:8"/>
    </vehicle>
    <vehicle id="58" depart="5.80">
        <route edges="10:9 9:0 0:2 2:8"/>
    </vehicle>
    <vehicle id="62" depart="6.20">
        <route edges="8:2 2:0 0:1"/>
    </vehicle>
    <vehicle id="66" depart="6.60">
        <route edges="1:0 0:9 9:10"/>
    </vehicle>
    <vehicle id="68" depart="6.80">
        <route edges="10:9 9:0 0:1 1:3 3:7"/>
    </vehicle>
    <vehicle id="75" depart="7.50">
        <route edges="2:0 0:1"/>
    </vehicle>
    <vehicle id="77" depart="7.70">
        <route edges="10:9 9:0 0:2"/>
    </vehicle>
    <vehicle id="80" depart="8.00">
        <route edges="8:2 2:0 0:1 1:3 3:7"/>
    </vehicle>
    <vehicle id="81" depart="8.10">
        <route edges="8:2 2:0 0:1 1:3"/>
    </vehicle>
    <vehicle id="84" depart="8.40">
        <route edges="1:3 3:7"/>
    </vehicle>
    <vehicle id="90" depart="9.00">
        <route edges="0:2 2:8"/>
    </vehicle>
    <vehicle id="91" depart="9.10">
        <route edges="3:1 1:0 0:2 2:8"/>
    </vehicle>
    <vehicle id="93" depart="9.30">
        <route edges="8:2 2:0 0:1 1:5 5:6"/>
    </vehicle>
    <vehicle id="97" depart="9.70">
        <route edges="6:5 5:1 1:0 0:2 2:8"/>
    </vehicle>
    <vehicle id="98" depart="9.80">
        <route edges="6:5 5:1 1:0 0:2"/>
    </vehicle>
    <vehicle id="99" depart="9.90">
        <route edges="6:5 5:1 1:0 0:9"/>
    </vehicle>
    <vehicle id="100" depart="10.00">
        <route edges="8:2 2:0 0:1 1:3 3:7"/>
    </vehicle>
    <vehicle id="101" depart="10.10">
        <route edges="7:3 3:1 1:0 0:9"/>
    </vehicle>
    <vehicle id="102" depart="10.20">
        <route edges="1:3 3:7"/>
    </vehicle>
    <vehicle id="104" depart="10.40">
        <route edges="8:2 2:0"/>
    </vehicle>
    <vehicle id="107" depart="10.70">
        <route edges="6:5 5:1 1:3 3:7"/>
    </vehicle>
    <vehicle id="113" depart="11.30">
        <route edges="1:0"/>
    </vehicle>
    <vehicle id="115" depart="11.50">
        <route edges="6:5 5:1 1:3 3:7"/>
    </vehicle>
    <vehicle id="117" depart="11.70">
        <route edges="7:3 3:1 1:0 0:2 2:8"/>
    </vehicle>
    <vehicle id="119" depart="11.90">
        <route edges="2:0 0:1 1:3"/>
    </vehicle>
    <vehicle id="120" depart="12.00">
        <route edges="10:9 9:0 0:2 2:8"/>
    </vehicle>
    <vehicle id="121" depart="12.10">
        <route edges="7:3 3:1 1:0 0:9 9:10"/>
    </vehicle>
    <vehicle id="122" depart="12.20">
        <route edges="7:3 3:1 1:5 5:6"/>
    </vehicle>
    <vehicle id="123" depart="12.30">
        <route edges="8:2 2:0"/>
    </vehicle>
    <vehicle id="124" depart="12.40">
        <route edges="8:2 2:0 0:9 9:10"/>
    </vehicle>
    <vehicle id="125" depart="12.50">
        <route edges="8:2 2:0 0:1"/>
    </vehicle>
    <vehicle id="126" depart="12.60">
        <route edges="7:3 3:1 1:0 0:2 2:8"/>
    </vehicle>
    <vehicle id="127" depart="12.70">
        <route edges="3:1"/>
    </vehicle>
    <vehicle id="128" depart="12.80">
        <route edges="2:0 0:1"/>
    </vehicle>
    <vehicle id="129" depart="12.90">
        <route edges="7:3 3:1 1:0 0:2 2:8"/>
    </vehicle>
    <vehicle id="130" depart="13.00">
        <route edges="3:1 1:0 0:2"/>
    </vehicle>
    <vehicle id="132" depart="13.20">
        <route edges="1:5 5:6"/>
    </vehicle>
    <vehicle id="135" depart="13.50">
        <route edges="2:0"/>
    </vehicle>
    <vehicle id="137" depart="13.70">
        <route edges="1:0"/>
    </vehicle>
    <vehicle id="139" depart="13.90">
        <route edges="7:3 3:1 1:0 0:2 2:8"/>
    </vehicle>
    <vehicle id="142" depart="14.20">
        <route edges="6:5 5:1"/>
    </vehicle>
    <vehicle id="145" depart="14.50">
        <route edges="2:0 0:9 9:10"/>
    </vehicle>
    <vehicle id="147" depart="14.70">
        <route edges="7:3 3:1 1:0 0:2"/>
    </vehicle>
    <vehicle id="148" depart="14.80">
        <route edges="6:5 5:1 1:0 0:9"/>
    </vehicle>
    <vehicle id="150" depart="15.00">
        <route edges="8:2 2:0 0:1"/>
    </vehicle>
    <vehicle id="151" depart="15.10">
        <route edges="7:3 3:1"/>
    </vehicle>
    <vehicle id="152" depart="15.20">
        <route edges="2:0"/>
    </vehicle>
    <vehicle id="153" depart="15.30">
        <route edges="3:1 1:0 0:2"/>
    </vehicle>
    <vehicle id="154" depart="15.40">
        <route edges="8:2 2:0 0:1 1:3 3:7"/>
    </vehicle>
    <vehicle id="158" depart="15.80">
        <route edges="2:0"/>
    </vehicle>
    <vehicle id="162" depart="16.20">
        <route edges="8:2 2:0 0:1 1:3 3:7"/>
    </vehicle>
    <vehicle id="164" depart="16.40">
        <route edges="2:0 0:1"/>
    </vehicle>
    <vehicle id="166" depart="16.60">
        <route edges="6:5 5:1 1:0"/>
    </vehicle>
    <vehicle id="167" depart="16.70">
        <route edges="8:2 2:0"/>
    </vehicle>
    <vehicle id="168" depart="16.80">
        <route edges="8:2 2:0 0:1"/>
    </vehicle>
    <vehicle id="170" depart="17.00">
        <route edges="8:2 2:0 0:1 1:3 3:7"/>
    </vehicle>
    <vehicle id="171" depart="17.10">
        <route edges="8:2 2:0 0:1 1:3 3:7"/>
    </vehicle>
    <vehicle id="173" depart="17.30">
        <route edges="9:0 0:2"/>
    </vehicle>
    <vehicle id="174" depart="17.40">
        <route edges="10:9 9:0 0:1 1:5 5:6"/>
    </vehicle>
    <vehicle id="175" depart="17.50">
        <route edges="7:3 3:1"/>
    </vehicle>
    <vehicle id="176" depart="17.60">
        <route edges="1:5 5:6"/>
    </vehicle>
    <vehicle id="177" depart="17.70">
        <route edges="1:3 3:7"/>
    </vehicle>
    <vehicle id="179" depart="17.90">
        <route edges="7:3 3:1 1:0 0:2 2:8"/>
    </vehicle>
    <vehicle id="180" depart="18.00">
        <route edges="0:1 1:5"/>
    </vehicle>
    <vehicle id="183" depart="18.30">
        <route edges="6:5 5:1 1:0 0:2 2:8"/>
    </vehicle>
    <vehicle id="184" depart="18.40">
        <route edges="6:5 5:1 1:3 3:7"/>
    </vehicle>
    <vehicle id="185" depart="18.50">
        <route edges="10:9 9:0 0:1 1:3 3:7"/>
    </vehicle>
    <vehicle id="189" depart="18.90">
        <route edges="7:3 3:1"/>
    </vehicle>
    <vehicle id="190" depart="19.00">
        <route edges="9:0 0:2 2:8"/>
    </vehicle>
    <vehicle id="193" depart="19.30">
        <route edges="3:1 1:5 5:6"/>
    </vehicle>
    <vehicle id="198" depart="19.80">
        <route edges="6:5 5:1 1:0 0:2 2:8"/>
    </vehicle>
    <vehicle id="199" depart="19.90">
        <route edges="8:2 2:0 0:9"/>
    </vehicle>
    <vehicle id="202" depart="20.20">
        <route edges="2:0 0:1 1:3 3:7"/>
    </vehicle>
    <vehicle id="203" depart="20.30">
        <route edges="2:0 0:1 1:5 5:6"/>
    </vehicle>
    <vehicle id="204" depart="20.40">
        <route edges="7:3 3:1 1:0 0:2 2:8"/>
    </vehicle>
    <vehicle id="207" depart="20.70">
        <route edges="6:5 5:1 1:0"/>
    </vehicle>
    <vehicle id="209" depart="20.90">
        <route edges="3:1 1:0 0:9"/>
    </vehicle>
    <vehicle id="211" depart="21.10">
        <route edges="2:0 0:1 1:3 3:7"/>
    </vehicle>
    <vehicle id="212" depart="21.20">
        <route edges="0:2 2:8"/>
    </vehicle>
    <vehicle id="215" depart="21.50">
        <route edges="0:1 1:5"/>
    </vehicle>
    <vehicle id="218" depart="21.80">
        <route edges="8:2 2:0 0:1 1:3"/>
    </vehicle>
    <vehicle id="220" depart="22.00">
        <route edges="6:5 5:1"/>
    </vehicle>
    <vehicle id="221" depart="22.10">
        <route edges="9:0 0:1 1:3 3:7"/>
    </vehicle>
    <vehicle id="223" depart="22.30">
        <route edges="2:0 0:1 1:3 3:7"/>
    </vehicle>
    <vehicle id="225" depart="22.50">
        <route edges="6:5 5:1 1:0 0:2"/>
    </vehicle>
    <vehicle id="226" depart="22.60">
        <route edges="1:0 0:2 2:8"/>
    </vehicle>
    <vehicle id="229" depart="22.90">
        <route edges="7:3 3:1 1:0 0:2 2:8"/>
    </vehicle>
    <vehicle id="230" depart="23.00">
        <route edges="8:2 2:0 0:1 1:3 3:7"/>
    </vehicle>
    <vehicle id="231" depart="23.10">
        <route edges="3:1 1:0 0:2 2:8"/>
    </vehicle>
    <vehicle id="234" depart="23.40">
        <route edges="10:9 9:0 0:1 1:5"/>
    </vehicle>
    <vehicle id="237" depart="23.70">
        <route edges="3:1 1:0 0:2"/>
    </vehicle>
    <vehicle id="238" depart="23.80">
        <route edges="2:0 0:1 1:3 3:7"/>
    </vehicle>
    <vehicle id="239" depart="23.90">
        <route edges="7:3 3:1 1:0 0:2"/>
    </vehicle>
    <vehicle id="242" depart="24.20">
        <route edges="10:9 9:0 0:1 1:3"/>
    </vehicle>
    <vehicle id="243" depart="24.30">
        <route edges="8:2 2:0 0:1"/>
    </vehicle>
    <vehicle id="246" depart="24.60">
        <route edges="7:3 3:1 1:0 0:2 2:8"/>
    </vehicle>
    <vehicle id="248" depart="24.80">
        <route edges="3:1 1:0 0:2 2:8"/>
    </vehicle>
    <vehicle id="251" depart="25.10">
        <route edges="7:3 3:1 1:5 5:6"/>
    </vehicle>
    <vehicle id="252" depart="25.20">
        <route edges="1:0 0:2 2:8"/>
    </vehicle>
    <vehicle id="254" depart="25.40">
        <route edges="0:2 2:8"/>
    </vehicle>
    <vehicle id="255" depart="25.50">
        <route edges="10:9 9:0 0:1 1:3"/>
    </vehicle>
    <vehicle id="259" depart="25.90">
        <route edges="1:3 3:7"/>
    </vehicle>
    <vehicle id="260" depart="26.00">
        <route edges="7:3 3:1 1:0"/>
    </vehicle>
    <vehicle id="262" depart="26.20">
        <route edges="2:0 0:1 1:3"/>
    </vehicle>
    <vehicle id="264" depart="26.40">
        <route edges="8:2 2:0 0:9 9:10"/>
    </vehicle>
    <vehicle id="265" depart="26.50">
        <route edges="3:1 1:0 0:2"/>
    </vehicle>
    <vehicle id="266" depart="26.60">
        <route edges="3:1"/>
    </vehicle>
    <vehicle id="268" depart="26.80">
        <route edges="1:3 3:7"/>
    </vehicle>
    <vehicle id="269" depart="26.90">
        <route edges="9:0 0:1 1:5 5:6"/>
    </vehicle>
    <vehicle id="271" depart="27.10">
        <route edges="1:3 3:7"/>
    </vehicle>
    <vehicle id="274" depart="27.40">
        <route edges="10:9 9:0 0:1 1:3 3:7"/>
    </vehicle>
    <vehicle id="275" depart="27.50">
        <route edges="1:0 0:2 2:8"/>
    </vehicle>
    <vehicle id="281" depart="28.10">
        <route edges="0:1 1:5"/>
    </vehicle>
    <vehicle id="282" depart="28.20">
        <route edges="2:0 0:1 1:5"/>
    </vehicle>
    <vehicle id="284" depart="28.40">
        <route edges="1:3 3:7"/>
    </vehicle>
    <vehicle id="285" depart="28.50">
        <route edges="7:3 3:1 1:0 0:2 2:8"/>
    </vehicle>
    <vehicle id="286" depart="28.60">
        <route edges="0:1 1:3 3:7"/>
    </vehicle>
    <vehicle id="288" depart="28.80">
        <route edges="9:0 0:1 1:5"/>
    </vehicle>
    <vehicle id="293" depart="29.30">
        <route edges="7:3 3:1 1:0 0:2"/>
    </vehicle>
    <vehicle id="294" depart="29.40">
        <route edges="2:0 0:1"/>
    </vehicle>
    <vehicle id="297" depart="29.70">
        <route edges="10:9 9:0"/>
    </vehicle>
    <vehicle id="299" depart="29.90">
        <route edges="2:0 0:9"/>
    </vehicle>
    <vehicle id="300" depart="30.00">
        <route edges="7:3 3:1 1:0 0:2"/>
    </vehicle>
    <vehicle id="303" depart="30.30">
        <route edges="6:5 5:1 1:0 0:9 9:10"/>
    </vehicle>
    <vehicle id="306" depart="30.60">
        <route edges="3:1 1:0 0:2 2:8"/>
    </vehicle>
    <vehicle id="307" depart="30.70">
        <route edges="6:5 5:1 1:0 0:2 2:8"/>
    </vehicle>
    <vehicle id="308" depart="30.80">
        <route edges="0:1 1:3 3:7"/>
    </vehicle>
    <vehicle id="309" depart="30.90">
        <route edges="8:2 2:0 0:9 9:10"/>
    </vehicle>
    <vehicle id="310" depart="31.00">
        <route edges="2:0 0:1"/>
    </vehicle>
    <vehicle id="311" depart="31.10">
        <route edges="7:3 3:1 1:0 0:2 2:8"/>
    </vehicle>
    <vehicle id="314" depart="31.40">
        <route edges="1:3"/>
    </vehicle>
    <vehicle id="315" depart="31.50">
        <route edges="1:3 3:7"/>
    </vehicle>
    <vehicle id="316" depart="31.60">
        <route edges="7:3 3:1 1:0"/>
    </vehicle>
    <vehicle id="317" depart="31.70">
        <route edges="2:0 0:1"/>
    </vehicle>
    <vehicle id="322" depart="32.20">
        <route edges="9:0 0:2 2:8"/>
    </vehicle>
    <vehicle id="327" depart="32.70">
        <route edges="9:0 0:2 2:8"/>
    </vehicle>
    <vehicle id="328" depart="32.80">
        <route edges="8:2 2:0 0:1"/>
    </vehicle>
    <vehicle id="329" depart="32.90">
        <route edges="8:2 2:0 0:1 1:3 3:7"/>
    </vehicle>
    <vehicle id="330" depart="33.00">
        <route edges="5:1 1:3 3:7"/>
    </vehicle>
    <vehicle id="334" depart="33.40">
        <route edges="7:3 3:1 1:5 5:6"/>
    </vehicle>
    <vehicle id="335" depart="33.50">
        <route edges="6:5 5:1 1:0"/>
    </vehicle>
    <vehicle id="336" depart="33.60">
        <route edges="10:9 9:0 0:1 1:3"/>
    </vehicle>
    <vehicle id="343" depart="34.30">
        <route edges="10:9 9:0 0:2 2:8"/>
    </vehicle>
    <vehicle id="349" depart="34.90">
        <route edges="9:0"/>
    </vehicle>
    <vehicle id="355" depart="35.50">
        <route edges="5:1 1:3"/>
    </vehicle>
    <vehicle id="357" depart="35.70">
        <route edges="7:3 3:1"/>
    </vehicle>
    <vehicle id="358" depart="35.80">
        <route edges="0:2"/>
    </vehicle>
    <vehicle id="359" depart="35.90">
        <route edges="2:0 0:1 1:3 3:7"/>
    </vehicle>
    <vehicle id="360" depart="36.00">
        <route edges="10:9 9:0 0:1"/>
    </vehicle>
    <vehicle id="362" depart="36.20">
        <route edges="6:5 5:1 1:0 0:9 9:10"/>
    </vehicle>
    <vehicle id="366" depart="36.60">
        <route edges="3:1 1:0 0:2"/>
    </vehicle>
    <vehicle id="367" depart="36.70">
        <route edges="8:2 2:0 0:1 1:3"/>
    </vehicle>
    <vehicle id="370" depart="37.00">
        <route edges="6:5 5:1 1:0 0:2"/>
    </vehicle>
    <vehicle id="371" depart="37.10">
        <route edges="6:5 5:1 1:0"/>
    </vehicle>
    <vehicle id="372" depart="37.20">
        <route edges="6:5 5:1 1:0 0:2"/>
    </vehicle>
    <vehicle id="373" depart="37.30">
        <route edges="8:2 2:0 0:1 1:3 3:7"/>
    </vehicle>
    <vehicle id="374" depart="37.40">
        <route edges="8:2 2:0 0:9 9:10"/>
    </vehicle>
    <vehicle id="375" depart="37.50">
        <route edges="7:3 3:1 1:0 0:2 2:8"/>
    </vehicle>
    <vehicle id="377" depart="37.70">
        <route edges="8:2 2:0 0:1 1:5"/>
    </vehicle>
    <vehicle id="378" depart="37.80">
        <route edges="3:1 1:5 5:6"/>
    </vehicle>
    <vehicle id="381" depart="38.10">
        <route edges="7:3 3:1 1:0 0:9"/>
    </vehicle>
    <vehicle id="384" depart="38.40">
        <route edges="8:2 2:0 0:9 9:10"/>
    </vehicle>
    <vehicle id="385" depart="38.50">
        <route edges="7:3 3:1 1:0 0:2 2:8"/>
    </vehicle>
    <vehicle id="387" depart="38.70">
        <route edges="8:2 2:0"/>
    </vehicle>
    <vehicle id="388" depart="38.80">
        <route edges="7:3 3:1 1:0 0:2 2:8"/>
    </vehicle>
    <vehicle id="389" depart="38.90">
        <route edges="9:0 0:1 1:5"/>
    </vehicle>
    <vehicle id="390" depart="39.00">
        <route edges="7:3 3:1 1:0 0:2 2:8"/>
    </vehicle>
    <vehicle id="391" depart="39.10">
        <route edges="10:9 9:0 0:1"/>
    </vehicle>
    <vehicle id="392" depart="39.20">
        <route edges="2:0 0:1"/>
    </vehicle>
    <vehicle id="393" depart="39.30">
        <route edges="6:5 5:1"/>
    </vehicle>
    <vehicle id="395" depart="39.50">
        <route edges="7:3 3:1 1:0 0:9"/>
    </vehicle>
    <vehicle id="397" depart="39.70">
        <route edges="7:3 3:1 1:0 0:2 2:8"/>
    </vehicle>
    <vehicle id="400" depart="40.00">
        <route edges="7:3 3:1 1:0 0:2"/>
    </vehicle>
    <vehicle id="401" depart="40.10">
        <route edges="9:0 0:2 2:8"/>
    </vehicle>
    <vehicle id="403" depart="40.30">
        <route edges="9:0 0:2 2:8"/>
    </vehicle>
    <vehicle id="405" depart="40.50">
        <route edges="8:2 2:0"/>
    </vehicle>
    <vehicle id="407" depart="40.70">
        <route edges="0:2 2:8"/>
    </vehicle>
    <vehicle id="411" depart="41.10">
        <route edges="8:2 2:0 0:1 1:3 3:7"/>
    </vehicle>
    <vehicle id="413" depart="41.30">
        <route edges="5:1 1:0 0:2"/>
    </vehicle>
    <vehicle id="414" depart="41.40">
        <route edges="2:0 0:1 1:3 3:7"/>
    </vehicle>
    <vehicle id="415" depart="41.50">
        <route edges="10:9 9:0 0:2 2:8"/>
    </vehicle>
    <vehicle id="418" depart="41.80">
        <route edges="10:9 9:0 0:1 1:3 3:7"/>
    </vehicle>
    <vehicle id="424" depart="42.40">
        <route edges="2:0 0:1 1:5 5:6"/>
    </vehicle>
    <vehicle id="429" depart="42.90">
        <route edges="3:1 1:0 0:2 2:8"/>
    </vehicle>
    <vehicle id="434" depart="43.40">
        <route edges="9:0 0:2"/>
    </vehicle>
    <vehicle id="436" depart="43.60">
        <route edges="10:9 9:0 0:1 1:3 3:7"/>
    </vehicle>
    <vehicle id="437" depart="43.70">
        <route edges="7:3 3:1 1:0 0:2 2:8"/>
    </vehicle>
    <vehicle id="444" depart="44.40">
        <route edges="7:3 3:1 1:0 0:2"/>
    </vehicle>
    <vehicle id="448" depart="44.80">
        <route edges="7:3 3:1 1:0 0:2 2:8"/>
    </vehicle>
    <vehicle id="449" depart="44.90">
        <route edges="8:2 2:0 0:1 1:3"/>
    </vehicle>
    <vehicle id="452" depart="45.20">
        <route edges="10:9 9:0 0:1 1:3 3:7"/>
    </vehicle>
    <vehicle id="453" depart="45.30">
        <route edges="7:3 3:1 1:0"/>
    </vehicle>
    <vehicle id="454" depart="45.40">
        <route edges="2:0 0:1 1:3 3:7"/>
    </vehicle>
    <vehicle id="456" depart="45.60">
        <route edges="7:3 3:1 1:5 5:6"/>
    </vehicle>
    <vehicle id="459" depart="45.90">
        <route edges="8:2 2:0 0:1 1:3 3:7"/>
    </vehicle>
    <vehicle id="460" depart="46.00">
        <route edges="7:3 3:1 1:0 0:9"/>
    </vehicle>
    <vehicle id="465" depart="46.50">
        <route edges="8:2 2:0 0:1 1:3 3:7"/>
    </vehicle>
    <vehicle id="468" depart="46.80">
        <route edges="7:3 3:1 1:5 5:6"/>
    </vehicle>
    <vehicle id="472" depart="47.20">
        <route edges="0:1 1:3"/>
    </vehicle>
    <vehicle id="473" depart="47.30">
        <route edges="6:5 5:1 1:3 3:7"/>
    </vehicle>
    <vehicle id="475" depart="47.50">
        <route edges="1:3 3:7"/>
    </vehicle>
    <vehicle id="477" depart="47.70">
        <route edges="8:2 2:0 0:9 9:10"/>
    </vehicle>
    <vehicle id="479" depart="47.90">
        <route edges="6:5 5:1 1:0 0:9 9:10"/>
    </vehicle>
    <vehicle id="480" depart="48.00">
        <route edges="8:2 2:0 0:1 1:3"/>
    </vehicle>
    <vehicle id="481" depart="48.10">
        <route edges="9:0 0:1 1:3 3:7"/>
    </vehicle>
    <vehicle id="482" depart="48.20">
        <route edges="7:3 3:1 1:0 0:9"/>
    </vehicle>
    <vehicle id="483" depart="48.30">
        <route edges="1:0 0:2"/>
    </vehicle>
    <vehicle id="484" depart="48.40">
        <route edges="6:5 5:1 1:0 0:9"/>
    </vehicle>
    <vehicle id="485" depart="48.50">
        <route edges="2:0 0:9 9:10"/>
    </vehicle>
    <vehicle id="487" depart="48.70">
        <route edges="9:0"/>
    </vehicle>
    <vehicle id="489" depart="48.90">
        <route edges="3:1"/>
    </vehicle>
    <vehicle id="490" depart="49.00">
        <route edges="6:5 5:1 1:3 3:7"/>
    </vehicle>
    <vehicle id="491" depart="49.10">
        <route edges="2:0 0:1 1:5 5:6"/>
    </vehicle>
    <vehicle id="494" depart="49.40">
        <route edges="8:2 2:0 0:1 1:5 5:6"/>
    </vehicle>
    <vehicle id="495" depart="49.50">
        <route edges="8:2 2:0 0:1 1:3 3:7"/>
    </vehicle>
    <vehicle id="496" depart="49.60">
        <route edges="8:2 2:0"/>
    </vehicle>
    <vehicle id="497" depart="49.70">
        <route edges="10:9 9:0 0:2 2:8"/>
    </vehicle>
    <vehicle id="500" depart="50.00">
        <route edges="0:1 1:3"/>
    </vehicle>
    <vehicle id="501" depart="50.10">
        <route edges="3:1"/>
    </vehicle>
    <vehicle id="503" depart="50.30">
        <route edges="8:2 2:0 0:1 1:5"/>
    </vehicle>
    <vehicle id="504" depart="50.40">
        <route edges="8:2 2:0 0:1 1:3 3:7"/>
    </vehicle>
    <vehicle id="505" depart="50.50">
        <route edges="7:3 3:1 1:0 0:2 2:8"/>
    </vehicle>
    <vehicle id="506" depart="50.60">
        <route edges="7:3 3:1 1:5 5:6"/>
    </vehicle>
    <vehicle id="507" depart="50.70">
        <route edges="8:2 2:0 0:1"/>
    </vehicle>
    <vehicle id="509" depart="50.90">
        <route edges="10:9 9:0 0:1 1:5 5:6"/>
    </vehicle>
    <vehicle id="513" depart="51.30">
        <route edges="8:2 2:0 0:1 1:5 5:6"/>
    </vehicle>
    <vehicle id="514" depart="51.40">
        <route edges="8:2 2:0 0:9"/>
    </vehicle>
    <vehicle id="515" depart="51.50">
        <route edges="3:1"/>
    </vehicle>
    <vehicle id="516" depart="51.60">
        <route edges="3:1 1:5 5:6"/>
    </vehicle>
    <vehicle id="517" depart="51.70">
        <route edges="7:3 3:1 1:0"/>
    </vehicle>
    <vehicle id="518" depart="51.80">
        <route edges="7:3 3:1 1:0 0:2 2:8"/>
    </vehicle>
    <vehicle id="519" depart="51.90">
        <route edges="2:0 0:1 1:3 3:7"/>
    </vehicle>
    <vehicle id="521" depart="52.10">
        <route edges="8:2 2:0 0:1"/>
    </vehicle>
    <vehicle id="522" depart="52.20">
        <route edges="3:1 1:0 0:2"/>
    </vehicle>
    <vehicle id="524" depart="52.40">
        <route edges="9:0 0:1"/>
    </vehicle>
    <vehicle id="525" depart="52.50">
        <route edges="8:2 2:0 0:9"/>
    </vehicle>
    <vehicle id="526" depart="52.60">
        <route edges="5:1 1:3"/>
    </vehicle>
    <vehicle id="528" depart="52.80">
        <route edges="10:9 9:0 0:2"/>
    </vehicle>
    <vehicle id="530" depart="53.00">
        <route edges="8:2 2:0 0:9 9:10"/>
    </vehicle>
    <vehicle id="531" depart="53.10">
        <route edges="2:0 0:1 1:3 3:7"/>
    </vehicle>
    <vehicle id="533" depart="53.30">
        <route edges="2:0 0:1 1:3"/>
    </vehicle>
    <vehicle id="536" depart="53.60">
        <route edges="10:9 9:0 0:1 1:3 3:7"/>
    </vehicle>
    <vehicle id="537" depart="53.70">
        <route edges="1:3"/>
    </vehicle>
    <vehicle id="538" depart="53.80">
        <route edges="2:0 0:1 1:5 5:6"/>
    </vehicle>
    <vehicle id="539" depart="53.90">
        <route edges="8:2 2:0 0:9 9:10"/>
    </vehicle>
    <vehicle id="541" depart="54.10">
        <route edges="8:2 2:0 0:1 1:5 5:6"/>
    </vehicle>
    <vehicle id="542" depart="54.20">
        <route edges="3:1"/>
    </vehicle>
    <vehicle id="543" depart="54.30">
        <route edges="7:3 3:1 1:0 0:2 2:8"/>
    </vehicle>
    <vehicle id="545" depart="54.50">
        <route edges="10:9 9:0 0:1 1:3 3:7"/>
    </vehicle>
    <vehicle id="546" depart="54.60">
        <route edges="1:5"/>
    </vehicle>
    <vehicle id="550" depart="55.00">
        <route edges="6:5 5:1 1:0 0:9"/>
    </vehicle>
    <vehicle id="553" depart="55.30">
        <route edges="2:0 0:1"/>
    </vehicle>
    <vehicle id="554" depart="55.40">
        <route edges="6:5 5:1 1:3 3:7"/>
    </vehicle>
    <vehicle id="555" depart="55.50">
        <route edges="2:0 0:1"/>
    </vehicle>
    <vehicle id="559" depart="55.90">
        <route edges="10:9 9:0 0:1 1:3 3:7"/>
    </vehicle>
    <vehicle id="560" depart="56.00">
        <route edges="7:3 3:1"/>
    </vehicle>
    <vehicle id="561" depart="56.10">
        <route edges="5:1 1:0 0:2 2:8"/>
    </vehicle>
    <vehicle id="563" depart="56.30">
        <route edges="7:3 3:1 1:0 0:2 2:8"/>
    </vehicle>
    <vehicle id="564" depart="56.40">
        <route edges="8:2 2:0 0:9 9:10"/>
    </vehicle>
    <vehicle id="566" depart="56.60">
        <route edges="3:1 1:0 0:9"/>
    </vehicle>
    <vehicle id="569" depart="56.90">
        <route edges="8:2 2:0 0:1 1:5 5:6"/>
    </vehicle>
    <vehicle id="570" depart="57.00">
        <route edges="9:0 0:2 2:8"/>
    </vehicle>
    <vehicle id="573" depart="57.30">
        <route edges="6:5 5:1 1:0 0:9 9:10"/>
    </vehicle>
    <vehicle id="574" depart="57.40">
        <route edges="5:1"/>
    </vehicle>
    <vehicle id="575" depart="57.50">
        <route edges="7:3 3:1 1:0"/>
    </vehicle>
    <vehicle id="577" depart="57.70">
        <route edges="7:3 3:1 1:0"/>
    </vehicle>
    <vehicle id="578" depart="57.80">
        <route edges="2:0"/>
    </vehicle>
    <vehicle id="579" depart="57.90">
        <route edges="2:0 0:1 1:3"/>
    </vehicle>
    <vehicle id="581" depart="58.10">
        <route edges="2:0 0:9 9:10"/>
    </vehicle>
    <vehicle id="582" depart="58.20">
        <route edges="2:0"/>
    </vehicle>
    <vehicle id="585" depart="58.50">
        <route edges="3:1 1:0 0:2 2:8"/>
    </vehicle>
    <vehicle id="586" depart="58.60">
        <route edges="7:3 3:1 1:0 0:9 9:10"/>
    </vehicle>
    <vehicle id="590" depart="59.00">
        <route edges="0:1 1:5 5:6"/>
    </vehicle>
    <vehicle id="591" depart="59.10">
        <route edges="9:0 0:1 1:5 5:6"/>
    </vehicle>
    <vehicle id="595" depart="59.50">
        <route edges="7:3 3:1 1:0 0:2 2:8"/>
    </vehicle>
    <vehicle id="596" depart="59.60">
        <route edges="8:2 2:0 0:1 1:3 3:7"/>
    </vehicle>
    <vehicle id="597" depart="59.70">
        <route edges="8:2 2:0 0:1 1:3"/>
    </vehicle>
    <vehicle id="599" depart="59.90">
        <route edges="8:2 2:0 0:1 1:3 3:7"/>
    </vehicle>
    <vehicle id="601" depart="60.10">
        <route edges="8:2 2:0 0:1"/>
    </vehicle>
    <vehicle id="602" depart="60.20">
        <route edges="3:1 1:0 0:2"/>
    </vehicle>
    <vehicle id="604" depart="60.40">
        <route edges="5:1"/>
    </vehicle>
    <vehicle id="605" depart="60.50">
        <route edges="0:2"/>
    </vehicle>
    <vehicle id="607" depart="60.70">
        <route edges="9:0 0:1 1:3 3:7"/>
    </vehicle>
    <vehicle id="610" depart="61.00">
        <route edges="6:5 5:1 1:3 3:7"/>
    </vehicle>
    <vehicle id="611" depart="61.10">
        <route edges="0:9 9:10"/>
    </vehicle>
    <vehicle id="612" depart="61.20">
        <route edges="5:1 1:0 0:2 2:8"/>
    </vehicle>
    <vehicle id="614" depart="61.40">
        <route edges="5:1 1:0 0:2 2:8"/>
    </vehicle>
    <vehicle id="615" depart="61.50">
        <route edges="8:2 2:0 0:9 9:10"/>
    </vehicle>
    <vehicle id="619" depart="61.90">
        <route edges="2:0 0:1 1:5 5:6"/>
    </vehicle>
    <vehicle id="621" depart="62.10">
        <route edges="2:0 0:9 9:10"/>
    </vehicle>
    <vehicle id="623" depart="62.30">
        <route edges="10:9 9:0 0:1 1:3"/>
    </vehicle>
    <vehicle id="625" depart="62.50">
        <route edges="8:2 2:0 0:1 1:3 3:7"/>
    </vehicle>
    <vehicle id="626" depart="62.60">
        <route edges="3:1"/>
    </vehicle>
    <vehicle id="627" depart="62.70">
        <route edges="1:5"/>
    </vehicle>