<?xml version="1.0" encoding="UTF-8"?>

<!-- generated on Thu Feb 13 14:15:56 2014 by SUMO duarouter Version 0.18.0
<?xml version="1.0" encoding="UTF-8"?>

<configuration xmlns:xsi="http://www.w3.org/2001/XMLSchema-instance" xsi:noNamespaceSchemaLocation="http://sumo.sf.net/xsd/duarouterConfiguration.xsd">

    <input>
        <net-file value="twinT.net.xml"/>
        <trip-files value="experimentos/twinT.p0.4.9.trips.xml"/>
    </input>

    <output>
        <output-file value="experimentos/twinT.p0.4.9.rou.xml"/>
    </output>

    <processing>
        <ignore-errors value="true"/>
    </processing>

    <random_number>
        <random value="true"/>
    </random_number>

</configuration>
-->

<routes xmlns:xsi="http://www.w3.org/2001/XMLSchema-instance" xsi:noNamespaceSchemaLocation="http://sumo.sf.net/xsd/routes_file.xsd">
    <vehicle id="1" depart="0.40">
        <route edges="10:9 9:0 0:1 1:5"/>
    </vehicle>
    <vehicle id="4" depart="1.60">
        <route edges="6:5 5:1 1:3 3:7"/>
    </vehicle>
    <vehicle id="7" depart="2.80">
        <route edges="7:3 3:1 1:0 0:2 2:8"/>
    </vehicle>
    <vehicle id="9" depart="3.60">
        <route edges="8:2 2:0 0:1 1:5"/>
    </vehicle>
    <vehicle id="11" depart="4.40">
        <route edges="3:1 1:0 0:2"/>
    </vehicle>
    <vehicle id="16" depart="6.40">
        <route edges="8:2 2:0 0:1 1:3"/>
    </vehicle>
    <vehicle id="17" depart="6.80">
        <route edges="7:3 3:1 1:0 0:9"/>
    </vehicle>
    <vehicle id="18" depart="7.20">
        <route edges="5:1 1:3"/>
    </vehicle>
    <vehicle id="20" depart="8.00">
        <route edges="8:2 2:0 0:1"/>
    </vehicle>
    <vehicle id="23" depart="9.20">
        <route edges="3:1"/>
    </vehicle>
    <vehicle id="25" depart="10.00">
        <route edges="7:3 3:1 1:0 0:2 2:8"/>
    </vehicle>
    <vehicle id="26" depart="10.40">
        <route edges="3:1 1:0 0:9 9:10"/>
    </vehicle>
    <vehicle id="27" depart="10.80">
        <route edges="8:2 2:0 0:1 1:3"/>
    </vehicle>
    <vehicle id="28" depart="11.20">
        <route edges="5:1 1:3"/>
    </vehicle>
    <vehicle id="30" depart="12.00">
        <route edges="8:2 2:0"/>
    </vehicle>
    <vehicle id="31" depart="12.40">
        <route edges="8:2 2:0 0:9 9:10"/>
    </vehicle>
    <vehicle id="32" depart="12.80">
        <route edges="8:2 2:0 0:1 1:3"/>
    </vehicle>
    <vehicle id="35" depart="14.00">
        <route edges="3:1 1:0 0:2 2:8"/>
    </vehicle>
    <vehicle id="38" depart="15.20">
        <route edges="3:1 1:0"/>
    </vehicle>
    <vehicle id="42" depart="16.80">
        <route edges="2:0 0:1 1:5"/>
    </vehicle>
    <vehicle id="44" depart="17.60">
        <route edges="7:3 3:1 1:0 0:2"/>
    </vehicle>
    <vehicle id="45" depart="18.00">
        <route edges="6:5 5:1 1:0 0:2 2:8"/>
    </vehicle>
    <vehicle id="46" depart="18.40">
        <route edges="7:3 3:1 1:0 0:2"/>
    </vehicle>
    <vehicle id="48" depart="19.20">
        <route edges="10:9 9:0 0:1 1:3 3:7"/>
    </vehicle>
    <vehicle id="49" depart="19.60">
        <route edges="5:1 1:0 0:9"/>
    </vehicle>
    <vehicle id="51" depart="20.40">
        <route edges="7:3 3:1 1:0 0:2"/>
    </vehicle>
    <vehicle id="52" depart="20.80">
        <route edges="9:0 0:2"/>
    </vehicle>
    <vehicle id="53" depart="21.20">
        <route edges="9:0 0:1 1:5 5:6"/>
    </vehicle>
    <vehicle id="54" depart="21.60">
        <route edges="8:2 2:0 0:1 1:3 3:7"/>
    </vehicle>
    <vehicle id="56" depart="22.40">
        <route edges="5:1 1:3 3:7"/>
    </vehicle>
    <vehicle id="57" depart="22.80">
        <route edges="6:5 5:1 1:0"/>
    </vehicle>
    <vehicle id="59" depart="23.60">
        <route edges="8:2 2:0 0:1 1:3 3:7"/>
    </vehicle>
    <vehicle id="62" depart="24.80">
        <route edges="3:1 1:0 0:9"/>
    </vehicle>
    <vehicle id="63" depart="25.20">
        <route edges="6:5 5:1 1:0 0:2"/>
    </vehicle>
    <vehicle id="64" depart="25.60">
        <route edges="8:2 2:0 0:1 1:5"/>
    </vehicle>
    <vehicle id="65" depart="26.00">
        <route edges="10:9 9:0 0:1 1:5"/>
    </vehicle>
    <vehicle id="66" depart="26.40">
        <route edges="7:3 3:1 1:0 0:2 2:8"/>
    </vehicle>
    <vehicle id="69" depart="27.60">
        <route edges="7:3 3:1"/>
    </vehicle>
    <vehicle id="70" depart="28.00">
        <route edges="0:2"/>
    </vehicle>
    <vehicle id="72" depart="28.80">
        <route edges="2:0 0:9 9:10"/>
    </vehicle>
    <vehicle id="73" depart="29.20">
        <route edges="1:3 3:7"/>
    </vehicle>
    <vehicle id="77" depart="30.80">
        <route edges="3:1 1:0 0:9 9:10"/>
    </vehicle>
    <vehicle id="79" depart="31.60">
        <route edges="6:5 5:1 1:3 3:7"/>
    </vehicle>
    <vehicle id="80" depart="32.00">
        <route edges="6:5 5:1 1:0 0:2 2:8"/>
    </vehicle>
    <vehicle id="81" depart="32.40">
        <route edges="1:0 0:2"/>
    </vehicle>
    <vehicle id="82" depart="32.80">
        <route edges="0:1 1:5"/>
    </vehicle>
    <vehicle id="85" depart="34.00">
        <route edges="3:1"/>
    </vehicle>
    <vehicle id="87" depart="34.80">
        <route edges="1:5 5:6"/>
    </vehicle>
    <vehicle id="89" depart="35.60">
        <route edges="10:9 9:0 0:1 1:3 3:7"/>
    </vehicle>
    <vehicle id="91" depart="36.40">
        <route edges="2:0 0:9 9:10"/>
    </vehicle>
    <vehicle id="92" depart="36.80">
        <route edges="7:3 3:1 1:5 5:6"/>
    </vehicle>
    <vehicle id="93" depart="37.20">
        <route edges="6:5 5:1 1:0 0:2"/>
    </vehicle>
    <vehicle id="97" depart="38.80">
        <route edges="7:3 3:1 1:5"/>
    </vehicle>
    <vehicle id="99" depart="39.60">
        <route edges="2:0 0:1 1:5 5:6"/>
    </vehicle>
    <vehicle id="100" depart="40.00">
        <route edges="8:2 2:0"/>
    </vehicle>
    <vehicle id="103" depart="41.20">
        <route edges="7:3 3:1 1:0"/>
    </vehicle>
    <vehicle id="105" depart="42.00">
        <route edges="7:3 3:1 1:0 0:2 2:8"/>
    </vehicle>
    <vehicle id="107" depart="42.80">
        <route edges="1:5 5:6"/>
    </vehicle>
    <vehicle id="108" depart="43.20">
        <route edges="7:3 3:1 1:0"/>
    </vehicle>
    <vehicle id="114" depart="45.60">
        <route edges="3:1 1:5"/>
    </vehicle>
    <vehicle id="115" depart="46.00">
        <route edges="3:1 1:5 5:6"/>
    </vehicle>
    <vehicle id="117" depart="46.80">
        <route edges="7:3 3:1 1:0 0:2"/>
    </vehicle>
    <vehicle id="121" depart="48.40">
        <route edges="10:9 9:0 0:2 2:8"/>
    </vehicle>
    <vehicle id="122" depart="48.80">
        <route edges="2:0 0:9"/>
    </vehicle>
    <vehicle id="126" depart="50.40">
        <route edges="0:1 1:5"/>
    </vehicle>
    <vehicle id="128" depart="51.20">
        <route edges="10:9 9:0 0:1 1:5"/>
    </vehicle>
    <vehicle id="129" depart="51.60">
        <route edges="10:9 9:0 0:1 1:3 3:7"/>
    </vehicle>
    <vehicle id="130" depart="52.00">
        <route edges="7:3 3:1 1:5"/>
    </vehicle>
    <vehicle id="134" depart="53.60">
        <route edges="0:2 2:8"/>
    </vehicle>
    <vehicle id="136" depart="54.40">
        <route edges="2:0 0:1"/>
    </vehicle>
    <vehicle id="138" depart="55.20">
        <route edges="8:2 2:0 0:1 1:3 3:7"/>
    </vehicle>
    <vehicle id="139" depart="55.60">
        <route edges="8:2 2:0 0:9 9:10"/>
    </vehicle>
    <vehicle id="140" depart="56.00">
        <route edges="8:2 2:0 0:1 1:3 3:7"/>
    </vehicle>
    <vehicle id="145" depart="58.00">
        <route edges="7:3 3:1 1:0 0:2 2:8"/>
    </vehicle>
    <vehicle id="146" depart="58.40">
        <route edges="1:3 3:7"/>
    </vehicle>
    <vehicle id="147" depart="58.80">
        <route edges="7:3 3:1 1:0 0:9 9:10"/>
    </vehicle>
    <vehicle id="148" depart="59.20">
        <route edges="7:3 3:1 1:0 0:2 2:8"/>
    </vehicle>
    <vehicle id="150" depart="60.00">
        <route edges="8:2 2:0 0:9 9:10"/>
    </vehicle>
    <vehicle id="157" depart="62.80">
        <route edges="10:9 9:0"/>
    </vehicle>
    <vehicle id="159" depart="63.60">
        <route edges="3:1 1:0 0:2 2:8"/>
    </vehicle>
    <vehicle id="160" depart="64.00">
        <route edges="7:3 3:1 1:0 0:2 2:8"/>
    </vehicle>
    <vehicle id="161" depart="64.40">
        <route edges="7:3 3:1 1:0"/>
    </vehicle>
    <vehicle id="162" depart="64.80">
        <route edges="9:0 0:1 1:3"/>
    </vehicle>
    <vehicle id="163" depart="65.20">
        <route edges="7:3 3:1 1:0 0:2 2:8"/>
    </vehicle>
    <vehicle id="164" depart="65.60">
        <route edges="1:0"/>
    </vehicle>
    <vehicle id="166" depart="66.40">
        <route edges="0:2 2:8"/>
    </vehicle>
    <vehicle id="170" depart="68.00">
        <route edges="5:1 1:0 0:2"/>
    </vehicle>
    <vehicle id="172" depart="68.80">
        <route edges="0:2 2:8"/>
    </vehicle>
    <vehicle id="174" depart="69.60">
        <route edges="2:0 0:1 1:5 5:6"/>
    </vehicle>
    <vehicle id="175" depart="70.00">
        <route edges="8:2 2:0 0:1 1:5 5:6"/>
    </vehicle>
    <vehicle id="176" depart="70.40">
        <route edges="7:3 3:1 1:5 5:6"/>
    </vehicle>
    <vehicle id="180" depart="72.00">
        <route edges="7:3 3:1"/>
    </vehicle>
    <vehicle id="181" depart="72.40">
        <route edges="1:0 0:2 2:8"/>
    </vehicle>
    <vehicle id="182" depart="72.80">
        <route edges="3:1 1:0 0:2 2:8"/>
    </vehicle>
    <vehicle id="183" depart="73.20">
        <route edges="6:5 5:1 1:0 0:2"/>
    </vehicle>
    <vehicle id="184" depart="73.60">
        <route edges="2:0"/>
    </vehicle>
    <vehicle id="190" depart="76.00">
        <route edges="0:1 1:5 5:6"/>
    </vehicle>
    <vehicle id="192" depart="76.80">
        <route edges="8:2 2:0 0:1 1:3 3:7"/>
    </vehicle>
    <vehicle id="193" depart="77.20">
        <route edges="7:3 3:1 1:0 0:2"/>
    </vehicle>
    <vehicle id="197" depart="78.80">
        <route edges="2:0 0:1 1:3 3:7"/>
    </vehicle>
    <vehicle id="200" depart="80.00">
        <route edges="1:3"/>
    </vehicle>
    <vehicle id="201" depart="80.40">
        <route edges="7:3 3:1 1:0 0:9 9:10"/>
    </vehicle>
    <vehicle id="203" depart="81.20">
        <route edges="2:0 0:9 9:10"/>
    </vehicle>
    <vehicle id="205" depart="82.00">
        <route edges="8:2 2:0 0:1 1:3 3:7"/>
    </vehicle>
    <vehicle id="208" depart="83.20">
        <route edges="6:5 5:1 1:3 3:7"/>
    </vehicle>
    <vehicle id="209" depart="83.60">
        <route edges="8:2 2:0 0:1 1:3"/>
    </vehicle>
    <vehicle id="210" depart="84.00">
        <route edges="8:2 2:0 0:1 1:5 5:6"/>
    </vehicle>
    <vehicle id="211" depart="84.40">
        <route edges="3:1 1:0 0:2"/>
    </vehicle>
    <vehicle id="212" depart="84.80">
        <route edges="8:2 2:0 0:1 1:3 3:7"/>
    </vehicle>
    <vehicle id="214" depart="85.60">
        <route edges="7:3 3:1 1:0 0:2"/>
    </vehicle>
    <vehicle id="215" depart="86.00">
        <route edges="6:5 5:1 1:0"/>
    </vehicle>
    <vehicle id="219" depart="87.60">
        <route edges="0:2 2:8"/>
    </vehicle>
    <vehicle id="220" depart="88.00">
        <route edges="2:0 0:1 1:3 3:7"/>
    </vehicle>
    <vehicle id="221" depart="88.40">
        <route edges="8:2 2:0"/>
    </vehicle>
    <vehicle id="222" depart="88.80">
        <route edges="3:1"/>
    </vehicle>
    <vehicle id="223" depart="89.20">
        <route edges="1:0"/>
    </vehicle>
    <vehicle id="226" depart="90.40">
        <route edges="2:0"/>
    </vehicle>
    <vehicle id="231" depart="92.40">
        <route edges="10:9 9:0 0:2 2:8"/>
    </vehicle>
    <vehicle id="234" depart="93.60">
        <route edges="1:0 0:2 2:8"/>
    </vehicle>
    <vehicle id="235" depart="94.00">
        <route edges="6:5 5:1 1:3 3:7"/>
    </vehicle>
    <vehicle id="236" depart="94.40">
        <route edges="5:1"/>
    </vehicle>
    <vehicle id="237" depart="94.80">
        <route edges="5:1 1:3 3:7"/>
    </vehicle>
    <vehicle id="239" depart="95.60">
        <route edges="8:2 2:0 0:1 1:3"/>
    </vehicle>
    <vehicle id="243" depart="97.20">
        <route edges="3:1 1:0 0:2 2:8"/>
    </vehicle>
    <vehicle id="244" depart="97.60">
        <route edges="7:3 3:1"/>
    </vehicle>
    <vehicle id="247" depart="98.80">
        <route edges="0:1 1:3 3:7"/>
    </vehicle>
    <vehicle id="249" depart="99.60">
        <route edges="2:0 0:1 1:3 3:7"/>
    </vehicle>
    <vehicle id="252" depart="100.80">
        <route edges="2:0 0:1 1:3 3:7"/>
    </vehicle>
    <vehicle id="255" depart="102.00">
        <route edges="5:1 1:3 3:7"/>
    </vehicle>
    <vehicle id="256" depart="102.40">
        <route edges="8:2 2:0 0:9 9:10"/>
    </vehicle>
    <vehicle id="257" depart="102.80">
        <route edges="9:0 0:1"/>
    </vehicle>
    <vehicle id="258" depart="103.20">
        <route edges="8:2 2:0 0:9"/>
    </vehicle>
    <vehicle id="259" depart="103.60">
        <route edges="8:2 2:0 0:1 1:3 3:7"/>
    </vehicle>
    <vehicle id="261" depart="104.40">
        <route edges="7:3 3:1 1:0 0:2 2:8"/>
    </vehicle>
    <vehicle id="262" depart="104.80">
        <route edges="8:2 2:0 0:1 1:5"/>
    </vehicle>
    <vehicle id="266" depart="106.40">
        <route edges="2:0 0:9 9:10"/>
    </vehicle>
    <vehicle id="268" depart="107.20">
        <route edges="9:0 0:1 1:3 3:7"/>
    </vehicle>
    <vehicle id="270" depart="108.00">
        <route edges="6:5 5:1"/>
    </vehicle>
    <vehicle id="276" depart="110.40">
        <route edges="0:2"/>
    </vehicle>
    <vehicle id="277" depart="110.80">
        <route edges="3:1"/>
    </vehicle>
    <vehicle id="278" depart="111.20">
        <route edges="5:1 1:0 0:9 9:10"/>
    </vehicle>
    <vehicle id="279" depart="111.60">
        <route edges="8:2 2:0 0:9 9:10"/>
    </vehicle>
    <vehicle id="285" depart="114.00">
        <route edges="9:0 0:2"/>
    </vehicle>
    <vehicle id="286" depart="114.40">
        <route edges="5:1"/>
    </vehicle>
    <vehicle id="288" depart="115.20">
        <route edges="0:2"/>
    </vehicle>
    <vehicle id="289" depart="115.60">
        <route edges="3:1 1:0 0:9"/>
    </vehicle>
    <vehicle id="292" depart="116.80">
        <route edges="1:3 3:7"/>
    </vehicle>
    <vehicle id="299" depart="119.60">
        <route edges="7:3 3:1 1:0 0:2 2:8"/>
    </vehicle>
    <vehicle id="302" depart="120.80">
        <route edges="8:2 2:0 0:1 1:5 5:6"/>
    </vehicle>
    <vehicle id="303" depart="121.20">
        <route edges="5:1"/>
    </vehicle>
    <vehicle id="304" depart="121.60">
        <route edges="10:9 9:0 0:1 1:3 3:7"/>
    </vehicle>
    <vehicle id="307" depart="122.80">
        <route edges="9:0 0:1 1:3 3:7"/>
    </vehicle>
    <vehicle id="314" depart="125.60">
        <route edges="7:3 3:1 1:5 5:6"/>
    </vehicle>
    <vehicle id="315" depart="126.00">
        <route edges="2:0 0:1 1:5"/>
    </vehicle>
    <vehicle id="316" depart="126.40">
        <route edges="2:0 0:9 9:10"/>
    </vehicle>
    <vehicle id="318" depart="127.20">
        <route edges="8:2 2:0 0:9 9:10"/>
    </vehicle>
    <vehicle id="319" depart="127.60">
        <route edges="1:0 0:9"/>
    </vehicle>
    <vehicle id="322" depart="128.80">
        <route edges="6:5 5:1 1:0 0:9 9:10"/>
    </vehicle>
    <vehicle id="324" depart="129.60">
        <route edges="2:0 0:1 1:3 3:7"/>
    </vehicle>
    <vehicle id="327" depart="130.80">
        <route edges="8:2 2:0 0:1 1:5"/>
    </vehicle>
    <vehicle id="329" depart="131.60">
        <route edges="0:2"/>
    </vehicle>
    <vehicle id="330" depart="132.00">
        <route edges="10:9 9:0 0:2"/>
    </vehicle>
    <vehicle id="331" depart="132.40">
        <route edges="3:1 1:0"/>
    </vehicle>
    <vehicle id="332" depart="132.80">
        <route edges="8:2 2:0 0:1 1:3"/>
    </vehicle>
    <vehicle id="333" depart="133.20">
        <route edges="7:3 3:1 1:0 0:2"/>
    </vehicle>
    <vehicle id="335" depart="134.00">
        <route edges="7:3 3:1 1:5 5:6"/>
    </vehicle>
    <vehicle id="338" depart="135.20">
        <route edges="7:3 3:1 1:0 0:2 2:8"/>
    </vehicle>
    <vehicle id="340" depart="136.00">
        <route edges="3:1"/>
    </vehicle>
    <vehicle id="341" depart="136.40">
        <route edges="1:3"/>
    </vehicle>
    <vehicle id="342" depart="136.80">
        <route edges="7:3 3:1 1:0 0:2 2:8"/>
    </vehicle>
    <vehicle id="344" depart="137.60">
        <route edges="8:2 2:0 0:1 1:5 5:6"/>
    </vehicle>
    <vehicle id="346" depart="138.40">
        <route edges="2:0 0:9 9:10"/>
    </vehicle>
    <vehicle id="347" depart="138.80">
        <route edges="2:0 0:1 1:3 3:7"/>
    </vehicle>
    <vehicle id="348" depart="139.20">
        <route edges="7:3 3:1 1:0 0:2 2:8"/>
    </vehicle>
    <vehicle id="349" depart="139.60">
        <route edges="3:1 1:0"/>
    </vehicle>
    <vehicle id="350" depart="140.00">
        <route edges="0:2 2:8"/>
    </vehicle>
    <vehicle id="354" depart="141.60">
        <route edges="0:1 1:5"/>
    </vehicle>
    <vehicle id="355" depart="142.00">
        <route edges="8:2 2:0 0:1 1:5 5:6"/>
    </vehicle>
    <vehicle id="356" depart="142.40">
        <route edges="6:5 5:1 1:3 3:7"/>
    </vehicle>
    <vehicle id="357" depart="142.80">
        <route edges="8:2 2:0 0:1 1:3"/>
    </vehicle>
    <vehicle id="362" depart="144.80">
        <route edges="0:1 1:3"/>
    </vehicle>
    <vehicle id="363" depart="145.20">
        <route edges="2:0 0:9 9:10"/>
    </vehicle>
    <vehicle id="364" depart="145.60">
        <route edges="10:9 9:0 0:1 1:3"/>
    </vehicle>
    <vehicle id="365" depart="146.00">
        <route edges="7:3 3:1 1:0 0:2 2:8"/>
    </vehicle>
    <vehicle id="366" depart="146.40">
        <route edges="7:3 3:1 1:0 0:2 2:8"/>
    </vehicle>
    <vehicle id="368" depart="147.20">
        <route edges="10:9 9:0 0:2"/>
    </vehicle>
    <vehicle id="369" depart="147.60">
        <route edges="10:9 9:0 0:2 2:8"/>
    </vehicle>
    <vehicle id="372" depart="148.80">
        <route edges="0:2 2:8"/>
    </vehicle>
    <vehicle id="373" depart="149.20">
        <route edges="8:2 2:0 0:1 1:3 3:7"/>
    </vehicle>
    <vehicle id="376" depart="150.40">
        <route edges="1:3 3:7"/>
    </vehicle>
    <vehicle id="378" depart="151.20">
        <route edges="8:2 2:0 0:1 1:3 3:7"/>
    </vehicle>
    <vehicle id="379" depart="151.60">
        <route edges="5:1 1:3 3:7"/>
    </vehicle>
    <vehicle id="381" depart="152.40">
        <route edges="7:3 3:1 1:0 0:2"/>
    </vehicle>
    <vehicle id="382" depart="152.80">
        <route edges="8:2 2:0 0:1 1:3 3:7"/>
    </vehicle>
    <vehicle id="383" depart="153.20">
        <route edges="0:1 1:3 3:7"/>
    </vehicle>
    <vehicle id="384" depart="153.60">
        <route edges="2:0 0:1 1:3 3:7"/>
    </vehicle>
    <vehicle id="387" depart="154.80">
        <route edges="9:0"/>
    </vehicle>
    <vehicle id="391" depart="156.40">
        <route edges="2:0 0:1 1:3 3:7"/>
    </vehicle>
    <vehicle id="392" depart="156.80">
        <route edges="8:2 2:0 0:1 1:3 3:7"/>
    </vehicle>
    <vehicle id="393" depart="157.20">
        <route edges="0:1"/>
    </vehicle>
    <vehicle id="395" depart="158.00">
        <route edges="1:3"/>
    </vehicle>
    <vehicle id="396" depart="158.40">
        <route edges="5:1 1:3 3:7"/>
    </vehicle>
    <vehicle id="398" depart="159.20">
        <route edges="3:1 1:0 0:2 2:8"/>
    </vehicle>
    <vehicle id="402" depart="160.80">
        <route edges="6:5 5:1 1:0 0:9"/>
    </vehicle>
    <vehicle id="403" depart="161.20">
        <route edges="8:2 2:0"/>
    </vehicle>
    <vehicle id="404" depart="161.60">
        <route edges="7:3 3:1 1:0 0:2 2:8"/>
    </vehicle>
    <vehicle id="405" depart="162.00">
        <route edges="7:3 3:1 1:5 5:6"/>
    </vehicle>
    <vehicle id="408" depart="163.20">
        <route edges="6:5 5:1 1:0 0:2 2:8"/>
    </vehicle>
    <vehicle id="409" depart="163.60">
        <route edges="6:5 5:1 1:0 0:2 2:8"/>
    </vehicle>
    <vehicle id="410" depart="164.00">
        <route edges="7:3 3:1 1:5 5:6"/>
    </vehicle>
    <vehicle id="411" depart="164.40">
        <route edges="6:5 5:1 1:0 0:9"/>
    </vehicle>
    <vehicle id="412" depart="164.80">
        <route edges="0:2 2:8"/>
    </vehicle>
    <vehicle id="414" depart="165.60">
        <route edges="7:3 3:1 1:0 0:2 2:8"/>
    </vehicle>
    <vehicle id="422" depart="168.80">
        <route edges="8:2 2:0 0:1 1:3"/>
    </vehicle>
    <vehicle id="423" depart="169.20">
        <route edges="3:1 1:5 5:6"/>
    </vehicle>
    <vehicle id="424" depart="169.60">
        <route edges="0:1 1:3 3:7"/>
    </vehicle>
    <vehicle id="429" depart="171.60">
        <route edges="8:2 2:0 0:1 1:5"/>
    </vehicle>
    <vehicle id="430" depart="172.00">
        <route edges="7:3 3:1 1:0 0:2 2:8"/>
    </vehicle>
    <vehicle id="431" depart="172.40">
        <route edges="8:2 2:0 0:1 1:3 3:7"/>
    </vehicle>
    <vehicle id="434" depart="173.60">
        <route edges="2:0"/>
    </vehicle>
    <vehicle id="436" depart="174.40">
        <route edges="6:5 5:1 1:0 0:2 2:8"/>
    </vehicle>
    <vehicle id="440" depart="176.00">
        <route edges="7:3 3:1 1:5 5:6"/>
    </vehicle>
    <vehicle id="444" depart="177.60">
        <route edges="7:3 3:1 1:0 0:2 2:8"/>
    </vehicle>
    <vehicle id="447" depart="178.80">
        <route edges="7:3 3:1 1:5 5:6"/>
    </vehicle>
    <vehicle id="457" depart="182.80">
        <route edges="8:2 2:0 0:1 1:5 5:6"/>
    </vehicle>
    <vehicle id="458" depart="183.20">
        <route edges="8:2 2:0 0:1 1:3"/>
    </vehicle>
    <vehicle id="459" depart="183.60">
        <route edges="2:0 0:1 1:5 5:6"/>
    </vehicle>
    <vehicle id="461" depart="184.40">
        <route edges="8:2 2:0 0:1 1:3 3:7"/>
    </vehicle>
    <vehicle id="463" depart="185.20">
        <route edges="8:2 2:0 0:1 1:3 3:7"/>
    </vehicle>
    <vehicle id="466" depart="186.40">
        <route edges="3:1 1:0"/>
    </vehicle>
    <vehicle id="469" depart="187.60">
        <route edges="8:2 2:0 0:1 1:5 5:6"/>
    </vehicle>
    <vehicle id="473" depart="189.20">
        <route edges="9:0 0:1 1:3 3:7"/>
    </vehicle>
    <vehicle id="474" depart="189.60">
        <route edges="7:3 3:1 1:0 0:9 9:10"/>
    </vehicle>
    <vehicle id="475" depart="190.00">
        <route edges="10:9 9:0 0:2"/>
    </vehicle>
    <vehicle id="476" depart="190.40">
        <route edges="2:0 0:1 1:3"/>
    </vehicle>
    <vehicle id="479" depart="191.60">
        <route edges="8:2 2:0 0:1"/>
    </vehicle>
    <vehicle id="480" depart="192.00">
        <route edges="7:3 3:1 1:0 0:9 9:10"/>
    </vehicle>
    <vehicle id="484" depart="193.60">
        <route edges="8:2 2:0 0:9 9:10"/>
    </vehicle>
    <vehicle id="485" depart="194.00">
        <route edges="7:3 3:1 1:0 0:2"/>
    </vehicle>
    <vehicle id="487" depart="194.80">
        <route edges="7:3 3:1 1:5 5:6"/>
    </vehicle>
    <vehicle id="488" depart="195.20">
        <route edges="8:2 2:0 0:9"/>
    </vehicle>
    <vehicle id="490" depart="196.00">
        <route edges="6:5 5:1 1:3 3:7"/>
    </vehicle>
    <vehicle id="492" depart="196.80">
        <route edges="8:2 2:0 0:1"/>
    </vehicle>
    <vehicle id="494" depart="197.60">
        <route edges="7:3 3:1 1:0"/>
    </vehicle>
    <vehicle id="497" depart="198.80">
        <route edges="1:0 0:2 2:8"/>
    </vehicle>
    <vehicle id="499" depart="199.60">
        <route edges="5:1 1:0 0:2 2:8"/>
    </vehicle>
    <vehicle id="500" depart="200.00">
        <route edges="7:3 3:1 1:0 0:2"/>
    </vehicle>
    <vehicle id="503" depart="201.20">
        <route edges="0:2"/>
    </vehicle>
    <vehicle id="504" depart="201.60">
        <route edges="8:2 2:0 0:1 1:3 3:7"/>
    </vehicle>
    <vehicle id="505" depart="202.00">
        <route edges="10:9 9:0 0:1"/>
    </vehicle>
    <vehicle id="507" depart="202.80">
        <route edges="2:0 0:9"/>
    </vehicle>
    <vehicle id="508" depart="203.20">
        <route edges="7:3 3:1 1:0 0:9"/>
    </vehicle>
    <vehicle id="509" depart="203.60">
        <route edges="7:3 3:1 1:0"/>
    </vehicle>
    <vehicle id="511" depart="204.40">
        <route edges="8:2 2:0 0:9 9:10"/>
    </vehicle>
    <vehicle id="512" depart="204.80">
        <route edges="3:1 1:0"/>
    </vehicle>
    <vehicle id="514" depart="205.60">
        <route edges="1:0 0:2 2:8"/>
    </vehicle>
    <vehicle id="516" depart="206.40">
        <route edges="8:2 2:0 0:1 1:3 3:7"/>
    </vehicle>
    <vehicle id="517" depart="206.80">
        <route edges="9:0 0:1"/>
    </vehicle>
    <vehicle id="518" depart="207.20">
        <route edges="0:2 2:8"/>
    </vehicle>
    <vehicle id="519" depart="207.60">
        <route edges="7:3 3:1 1:5 5:6"/>
    </vehicle>
    <vehicle id="521" depart="208.40">
        <route edges="0:2"/>
    </vehicle>
    <vehicle id="523" depart="209.20">
        <route edges="8:2 2:0"/>
    </vehicle>
    <vehicle id="525" depart="210.00">
        <route edges="0:9 9:10"/>
    </vehicle>
    <vehicle id="527" depart="210.80">
        <route edges="2:0 0:1"/>
    </vehicle>
    <vehicle id="530" depart="212.00">
        <route edges="8:2 2:0 0:1 1:3 3:7"/>
    </vehicle>
    <vehicle id="534" depart="213.60">
        <route edges="10:9 9:0 0:1"/>
    </vehicle>
    <vehicle id="535" depart="214.00">
        <route edges="8:2 2:0 0:1"/>
    </vehicle>
    <vehicle id="536" depart="214.40">
        <route edges="8:2 2:0"/>
    </vehicle>
    <vehicle id="537" depart="214.80">
        <route edges="10:9 9:0"/>
    </vehicle>
    <vehicle id="538" depart="215.20">
        <route edges="8:2 2:0 0:9"/>
    </vehicle>
    <vehicle id="539" depart="215.60">
        <route edges="1:0 0:2"/>
    </vehicle>
    <vehicle id="544" depart="217.60">
        <route edges="8:2 2:0 0:9 9:10"/>
    </vehicle>
    <vehicle id="545" depart="218.00">
        <route edges="2:0 0:9"/>
    </vehicle>
    <vehicle id="547" depart="218.80">
        <route edges="5:1 1:3 3:7"/>
    </vehicle>
    <vehicle id="548" depart="219.20">
        <route edges="1:3 3:7"/>
    </vehicle>
    <vehicle id="549" depart="219.60">
        <route edges="6:5 5:1 1:0 0:9 9:10"/>
    </vehicle>
    <vehicle id="551" depart="220.40">
        <route edges="7:3 3:1 1:0"/>
    </vehicle>
    <vehicle id="552" depart="220.80">
        <route edges="7:3 3:1 1:0 0:2 2:8"/>
    </vehicle>
    <vehicle id="553" depart="221.20">
        <route edges="7:3 3:1 1:0"/>
    </vehicle>
    <vehicle id="554" depart="221.60">
        <route edges="10:9 9:0 0:1 1:3"/>
    </vehicle>
    <vehicle id="555" depart="222.00">
        <route edges="0:1 1:3"/>
    </vehicle>
    <vehicle id="556" depart="222.40">
        <route edges="7:3 3:1 1:0 0:2"/>
    </vehicle>
    <vehicle id="557" depart="222.80">
        <route edges="9:0 0:2 2:8"/>
    </vehicle>
    <vehicle id="561" depart="224.40">
        <route edges="6:5 5:1 1:0 0:2 2:8"/>
    </vehicle>
    <vehicle id="563" depart="225.20">
        <route edges="10:9 9:0 0:2 2:8"/>
    </vehicle>
    <vehicle id="564" depart="225.60">
        <route edges="5:1 1:3 3:7"/>
    </vehicle>
    <vehicle id="566" depart="226.40">
        <route edges="1:3"/>
    </vehicle>
    <vehicle id="567" depart="226.80">
        <route edges="2:0 0:1 1:3"/>
    </vehicle>
    <vehicle id="576" depart="230.40">
        <route edges="3:1 1:0 0:2 2:8"/>
    </vehicle>
    <vehicle id="577" depart="230.80">
        <route edges="8:2 2:0"/>
    </vehicle>
    <vehicle id="579" depart="231.60">
        <route edges="0:2 2:8"/>
    </vehicle>
    <vehicle id="580" depart="232.00">
        <route edges="2:0 0:9 9:10"/>
    </vehicle>
    <vehicle id="582" depart="232.80">
        <route edges="2:0 0:1 1:3 3:7"/>
    </vehicle>
    <vehicle id="583" depart="233.20">
        <route edges="8:2 2:0"/>
    </vehicle>
    <vehicle id="584" depart="233.60">
        <route edges="1:3"/>
    </vehicle>
    <vehicle id="586" depart="234.40">
        <route edges="3:1"/>
    </vehicle>
    <vehicle id="587" depart="234.80">
        <route edges="6:5 5:1 1:0 0:2 2:8"/>
    </vehicle>
    <vehicle id="589" depart="235.60">
        <route edges="7:3 3:1 1:0 0:2 2:8"/>
    </vehicle>
    <vehicle id="590" depart="236.00">
        <route edges="8:2 2:0 0:1 1:3 3:7"/>
    </vehicle>
    <vehicle id="593" depart="237.20">
        <route edges="7:3 3:1 1:0 0:2"/>
    </vehicle>
    <vehicle id="595" depart="238.00">
        <route edges="6:5 5:1 1:0 0:2"/>
    </vehicle>
    <vehicle id="597" depart="238.80">
        <route edges="5:1 1:3"/>
    </vehicle>
    <vehicle id="598" depart="239.20">
        <route edges="9:0 0:1 1:3"/>
    </vehicle>
    <vehicle id="600" depart="240.00">
        <route edges="3:1 1:0 0:2"/>
    </vehicle>
    <vehicle id="606" depart="242.40">
        <route edges="9:0 0:1 1:3 3:7"/>
    </vehicle>
    <vehicle id="609" depart="243.60">
        <route edges="7:3 3:1 1:0 0:2 2:8"/>
    </vehicle>
    <vehicle id="611" depart="244.40">
        <route edges="6:5 5:1 1:0 0:2 2:8"/>
    </vehicle>
    <vehicle id="614" depart="245.60">
        <route edges="7:3 3:1 1:0 0:2"/>
    </vehicle>
    <vehicle id="615" depart="246.00">
        <route edges="9:0 0:1 1:3 3:7"/>
    </vehicle>
    <vehicle id="616" depart="246.40">
        <route edges="3:1 1:5 5:6"/>
    </vehicle>
    <vehicle id="621" depart="248.40">
        <route edges="3:1 1:0 0:2 2:8"/>
    </vehicle>
    <vehicle id="623" depart="249.20">
        <route edges="8:2 2:0 0:1 1:3 3:7"/>
    </vehicle>
    <vehicle id="624" depart="249.60">
        <route edges="10:9 9:0 0:1 1:3"/>
    </vehicle>
    <vehicle id="625" depart="250.00">
        <route edges="9:0 0:2 2:8"/>
    </vehicle>
    <vehicle id="626" depart="250.40">
        <route edges="2:0 0:1 1:5 5:6"/>
    </vehicle>
    <vehicle id="627" depart="250.80">
        <route edges="6:5 5:1 1:0 0:2 2:8"/>
    </vehicle>
    <vehicle id="629" depart="251.60">