<?xml version="1.0" encoding="UTF-8"?>

<!-- generated on Thu Feb 13 14:15:40 2014 by SUMO duarouter Version 0.18.0
<?xml version="1.0" encoding="UTF-8"?>

<configuration xmlns:xsi="http://www.w3.org/2001/XMLSchema-instance" xsi:noNamespaceSchemaLocation="http://sumo.sf.net/xsd/duarouterConfiguration.xsd">

    <input>
        <net-file value="twinT.net.xml"/>
        <trip-files value="experimentos/twinT.p0.4.4.trips.xml"/>
    </input>

    <output>
        <output-file value="experimentos/twinT.p0.4.4.rou.xml"/>
    </output>

    <processing>
        <ignore-errors value="true"/>
    </processing>

    <random_number>
        <random value="true"/>
    </random_number>

</configuration>
-->

<routes xmlns:xsi="http://www.w3.org/2001/XMLSchema-instance" xsi:noNamespaceSchemaLocation="http://sumo.sf.net/xsd/routes_file.xsd">
    <vehicle id="0" depart="0.00">
        <route edges="7:3 3:1 1:0 0:2"/>
    </vehicle>
    <vehicle id="3" depart="1.20">
        <route edges="8:2 2:0 0:1 1:3 3:7"/>
    </vehicle>
    <vehicle id="7" depart="2.80">
        <route edges="1:5 5:6"/>
    </vehicle>
    <vehicle id="8" depart="3.20">
        <route edges="7:3 3:1"/>
    </vehicle>
    <vehicle id="9" depart="3.60">
        <route edges="6:5 5:1 1:0 0:2 2:8"/>
    </vehicle>
    <vehicle id="10" depart="4.00">
        <route edges="8:2 2:0"/>
    </vehicle>
    <vehicle id="12" depart="4.80">
        <route edges="8:2 2:0 0:1 1:3 3:7"/>
    </vehicle>
    <vehicle id="14" depart="5.60">
        <route edges="3:1 1:0 0:2 2:8"/>
    </vehicle>
    <vehicle id="15" depart="6.00">
        <route edges="8:2 2:0 0:1 1:3 3:7"/>
    </vehicle>
    <vehicle id="20" depart="8.00">
        <route edges="6:5 5:1 1:0 0:9"/>
    </vehicle>
    <vehicle id="21" depart="8.40">
        <route edges="9:0 0:1 1:3 3:7"/>
    </vehicle>
    <vehicle id="22" depart="8.80">
        <route edges="8:2 2:0 0:1 1:5"/>
    </vehicle>
    <vehicle id="23" depart="9.20">
        <route edges="8:2 2:0 0:1 1:3 3:7"/>
    </vehicle>
    <vehicle id="25" depart="10.00">
        <route edges="2:0 0:9"/>
    </vehicle>
    <vehicle id="27" depart="10.80">
        <route edges="9:0 0:1 1:5"/>
    </vehicle>
    <vehicle id="28" depart="11.20">
        <route edges="9:0 0:2 2:8"/>
    </vehicle>
    <vehicle id="29" depart="11.60">
        <route edges="8:2 2:0 0:9 9:10"/>
    </vehicle>
    <vehicle id="31" depart="12.40">
        <route edges="6:5 5:1 1:0"/>
    </vehicle>
    <vehicle id="32" depart="12.80">
        <route edges="0:1 1:5"/>
    </vehicle>
    <vehicle id="33" depart="13.20">
        <route edges="9:0 0:1 1:5 5:6"/>
    </vehicle>
    <vehicle id="34" depart="13.60">
        <route edges="0:1 1:5 5:6"/>
    </vehicle>
    <vehicle id="36" depart="14.40">
        <route edges="7:3 3:1 1:0 0:2"/>
    </vehicle>
    <vehicle id="37" depart="14.80">
        <route edges="5:1 1:0 0:2"/>
    </vehicle>
    <vehicle id="38" depart="15.20">
        <route edges="6:5 5:1 1:0 0:9"/>
    </vehicle>
    <vehicle id="39" depart="15.60">
        <route edges="7:3 3:1 1:0"/>
    </vehicle>
    <vehicle id="40" depart="16.00">
        <route edges="10:9 9:0 0:1 1:5"/>
    </vehicle>
    <vehicle id="42" depart="16.80">
        <route edges="7:3 3:1 1:0 0:2 2:8"/>
    </vehicle>
    <vehicle id="44" depart="17.60">
        <route edges="9:0 0:1 1:3"/>
    </vehicle>
    <vehicle id="46" depart="18.40">
        <route edges="8:2 2:0 0:1 1:5"/>
    </vehicle>
    <vehicle id="47" depart="18.80">
        <route edges="1:3 3:7"/>
    </vehicle>
    <vehicle id="50" depart="20.00">
        <route edges="5:1"/>
    </vehicle>
    <vehicle id="52" depart="20.80">
        <route edges="7:3 3:1 1:0 0:2 2:8"/>
    </vehicle>
    <vehicle id="53" depart="21.20">
        <route edges="3:1 1:0 0:2 2:8"/>
    </vehicle>
    <vehicle id="59" depart="23.60">
        <route edges="8:2 2:0 0:1 1:3"/>
    </vehicle>
    <vehicle id="60" depart="24.00">
        <route edges="10:9 9:0 0:2 2:8"/>
    </vehicle>
    <vehicle id="62" depart="24.80">
        <route edges="7:3 3:1 1:0 0:9 9:10"/>
    </vehicle>
    <vehicle id="63" depart="25.20">
        <route edges="8:2 2:0"/>
    </vehicle>
    <vehicle id="64" depart="25.60">
        <route edges="5:1 1:0 0:2 2:8"/>
    </vehicle>
    <vehicle id="65" depart="26.00">
        <route edges="6:5 5:1 1:3 3:7"/>
    </vehicle>
    <vehicle id="66" depart="26.40">
        <route edges="2:0 0:9"/>
    </vehicle>
    <vehicle id="67" depart="26.80">
        <route edges="8:2 2:0 0:1 1:5 5:6"/>
    </vehicle>
    <vehicle id="70" depart="28.00">
        <route edges="3:1 1:0 0:2 2:8"/>
    </vehicle>
    <vehicle id="71" depart="28.40">
        <route edges="10:9 9:0 0:2"/>
    </vehicle>
    <vehicle id="73" depart="29.20">
        <route edges="2:0 0:1 1:3"/>
    </vehicle>
    <vehicle id="74" depart="29.60">
        <route edges="10:9 9:0"/>
    </vehicle>
    <vehicle id="75" depart="30.00">
        <route edges="0:2 2:8"/>
    </vehicle>
    <vehicle id="78" depart="31.20">
        <route edges="2:0 0:1 1:3 3:7"/>
    </vehicle>
    <vehicle id="79" depart="31.60">
        <route edges="8:2 2:0 0:1 1:5 5:6"/>
    </vehicle>
    <vehicle id="82" depart="32.80">
        <route edges="7:3 3:1 1:0 0:2 2:8"/>
    </vehicle>
    <vehicle id="84" depart="33.60">
        <route edges="7:3 3:1 1:0"/>
    </vehicle>
    <vehicle id="85" depart="34.00">
        <route edges="10:9 9:0 0:1 1:3"/>
    </vehicle>
    <vehicle id="88" depart="35.20">
        <route edges="2:0 0:1 1:5"/>
    </vehicle>
    <vehicle id="92" depart="36.80">
        <route edges="2:0 0:1 1:5"/>
    </vehicle>
    <vehicle id="93" depart="37.20">
        <route edges="7:3 3:1 1:0 0:2 2:8"/>
    </vehicle>
    <vehicle id="94" depart="37.60">
        <route edges="6:5 5:1 1:0 0:2 2:8"/>
    </vehicle>
    <vehicle id="95" depart="38.00">
        <route edges="7:3 3:1 1:0 0:2 2:8"/>
    </vehicle>
    <vehicle id="98" depart="39.20">
        <route edges="10:9 9:0 0:1"/>
    </vehicle>
    <vehicle id="99" depart="39.60">
        <route edges="8:2 2:0 0:1 1:3"/>
    </vehicle>
    <vehicle id="100" depart="40.00">
        <route edges="8:2 2:0 0:1 1:3 3:7"/>
    </vehicle>
    <vehicle id="102" depart="40.80">
        <route edges="7:3 3:1"/>
    </vehicle>
    <vehicle id="104" depart="41.60">
        <route edges="5:1 1:0 0:9 9:10"/>
    </vehicle>
    <vehicle id="107" depart="42.80">
        <route edges="8:2 2:0 0:1"/>
    </vehicle>
    <vehicle id="116" depart="46.40">
        <route edges="7:3 3:1 1:5"/>
    </vehicle>
    <vehicle id="117" depart="46.80">
        <route edges="1:3 3:7"/>
    </vehicle>
    <vehicle id="118" depart="47.20">
        <route edges="1:0 0:2 2:8"/>
    </vehicle>
    <vehicle id="119" depart="47.60">
        <route edges="3:1 1:0 0:2"/>
    </vehicle>
    <vehicle id="120" depart="48.00">
        <route edges="8:2 2:0"/>
    </vehicle>
    <vehicle id="121" depart="48.40">
        <route edges="0:9 9:10"/>
    </vehicle>
    <vehicle id="122" depart="48.80">
        <route edges="3:1 1:5"/>
    </vehicle>
    <vehicle id="123" depart="49.20">
        <route edges="7:3 3:1 1:5 5:6"/>
    </vehicle>
    <vehicle id="124" depart="49.60">
        <route edges="8:2 2:0 0:1 1:3 3:7"/>
    </vehicle>
    <vehicle id="125" depart="50.00">
        <route edges="9:0 0:1"/>
    </vehicle>
    <vehicle id="126" depart="50.40">
        <route edges="6:5 5:1 1:0 0:2"/>
    </vehicle>
    <vehicle id="128" depart="51.20">
        <route edges="1:0 0:9"/>
    </vehicle>
    <vehicle id="133" depart="53.20">
        <route edges="6:5 5:1 1:3 3:7"/>
    </vehicle>
    <vehicle id="135" depart="54.00">
        <route edges="5:1 1:0 0:2 2:8"/>
    </vehicle>
    <vehicle id="136" depart="54.40">
        <route edges="2:0 0:1 1:3"/>
    </vehicle>
    <vehicle id="139" depart="55.60">
        <route edges="7:3 3:1 1:0"/>
    </vehicle>
    <vehicle id="141" depart="56.40">
        <route edges="6:5 5:1 1:0 0:9"/>
    </vehicle>
    <vehicle id="142" depart="56.80">
        <route edges="9:0 0:2"/>
    </vehicle>
    <vehicle id="144" depart="57.60">
        <route edges="3:1"/>
    </vehicle>
    <vehicle id="145" depart="58.00">
        <route edges="0:2 2:8"/>
    </vehicle>
    <vehicle id="146" depart="58.40">
        <route edges="8:2 2:0 0:1 1:3 3:7"/>
    </vehicle>
    <vehicle id="148" depart="59.20">
        <route edges="6:5 5:1 1:0"/>
    </vehicle>
    <vehicle id="155" depart="62.00">
        <route edges="7:3 3:1 1:0 0:2 2:8"/>
    </vehicle>
    <vehicle id="156" depart="62.40">
        <route edges="5:1 1:0"/>
    </vehicle>
    <vehicle id="160" depart="64.00">
        <route edges="5:1 1:3 3:7"/>
    </vehicle>
    <vehicle id="161" depart="64.40">
        <route edges="9:0"/>
    </vehicle>
    <vehicle id="164" depart="65.60">
        <route edges="6:5 5:1 1:0 0:2 2:8"/>
    </vehicle>
    <vehicle id="165" depart="66.00">
        <route edges="7:3 3:1 1:0 0:2 2:8"/>
    </vehicle>
    <vehicle id="167" depart="66.80">
        <route edges="2:0 0:1 1:3 3:7"/>
    </vehicle>
    <vehicle id="168" depart="67.20">
        <route edges="8:2 2:0 0:1 1:3 3:7"/>
    </vehicle>
    <vehicle id="169" depart="67.60">
        <route edges="8:2 2:0"/>
    </vehicle>
    <vehicle id="171" depart="68.40">
        <route edges="2:0 0:1 1:5 5:6"/>
    </vehicle>
    <vehicle id="172" depart="68.80">
        <route edges="5:1 1:0 0:2 2:8"/>
    </vehicle>
    <vehicle id="174" depart="69.60">
        <route edges="0:2 2:8"/>
    </vehicle>
    <vehicle id="175" depart="70.00">
        <route edges="7:3 3:1 1:0 0:2 2:8"/>
    </vehicle>
    <vehicle id="176" depart="70.40">
        <route edges="3:1 1:0 0:2 2:8"/>
    </vehicle>
    <vehicle id="181" depart="72.40">
        <route edges="0:2 2:8"/>
    </vehicle>
    <vehicle id="183" depart="73.20">
        <route edges="8:2 2:0 0:9"/>
    </vehicle>
    <vehicle id="184" depart="73.60">
        <route edges="7:3 3:1 1:0 0:9 9:10"/>
    </vehicle>
    <vehicle id="186" depart="74.40">
        <route edges="0:2 2:8"/>
    </vehicle>
    <vehicle id="188" depart="75.20">
        <route edges="8:2 2:0 0:1 1:3 3:7"/>
    </vehicle>
    <vehicle id="189" depart="75.60">
        <route edges="1:3 3:7"/>
    </vehicle>
    <vehicle id="196" depart="78.40">
        <route edges="2:0 0:1 1:3 3:7"/>
    </vehicle>
    <vehicle id="197" depart="78.80">
        <route edges="1:0 0:2 2:8"/>
    </vehicle>
    <vehicle id="198" depart="79.20">
        <route edges="7:3 3:1"/>
    </vehicle>
    <vehicle id="199" depart="79.60">
        <route edges="5:1 1:0 0:2 2:8"/>
    </vehicle>
    <vehicle id="209" depart="83.60">
        <route edges="10:9 9:0 0:2 2:8"/>
    </vehicle>
    <vehicle id="211" depart="84.40">
        <route edges="1:0"/>
    </vehicle>
    <vehicle id="212" depart="84.80">
        <route edges="8:2 2:0 0:1 1:5 5:6"/>
    </vehicle>
    <vehicle id="213" depart="85.20">
        <route edges="6:5 5:1 1:0 0:2"/>
    </vehicle>
    <vehicle id="216" depart="86.40">
        <route edges="10:9 9:0 0:1 1:3 3:7"/>
    </vehicle>
    <vehicle id="219" depart="87.60">
        <route edges="8:2 2:0 0:1 1:5 5:6"/>
    </vehicle>
    <vehicle id="220" depart="88.00">
        <route edges="1:3"/>
    </vehicle>
    <vehicle id="222" depart="88.80">
        <route edges="5:1 1:3 3:7"/>
    </vehicle>
    <vehicle id="224" depart="89.60">
        <route edges="3:1 1:0 0:2"/>
    </vehicle>
    <vehicle id="225" depart="90.00">
        <route edges="7:3 3:1 1:5 5:6"/>
    </vehicle>
    <vehicle id="228" depart="91.20">
        <route edges="3:1 1:0 0:2"/>
    </vehicle>
    <vehicle id="230" depart="92.00">
        <route edges="9:0 0:1 1:3 3:7"/>
    </vehicle>
    <vehicle id="231" depart="92.40">
        <route edges="3:1"/>
    </vehicle>
    <vehicle id="232" depart="92.80">
        <route edges="7:3 3:1"/>
    </vehicle>
    <vehicle id="237" depart="94.80">
        <route edges="7:3 3:1 1:0 0:2 2:8"/>
    </vehicle>
    <vehicle id="238" depart="95.20">
        <route edges="6:5 5:1 1:0"/>
    </vehicle>
    <vehicle id="240" depart="96.00">
        <route edges="7:3 3:1"/>
    </vehicle>
    <vehicle id="243" depart="97.20">
        <route edges="2:0 0:1 1:3 3:7"/>
    </vehicle>
    <vehicle id="246" depart="98.40">
        <route edges="6:5 5:1 1:0 0:2"/>
    </vehicle>
    <vehicle id="247" depart="98.80">
        <route edges="3:1 1:0 0:2 2:8"/>
    </vehicle>
    <vehicle id="248" depart="99.20">
        <route edges="8:2 2:0 0:1 1:3 3:7"/>
    </vehicle>
    <vehicle id="252" depart="100.80">
        <route edges="3:1 1:0 0:2 2:8"/>
    </vehicle>
    <vehicle id="253" depart="101.20">
        <route edges="1:0 0:2 2:8"/>
    </vehicle>
    <vehicle id="256" depart="102.40">
        <route edges="7:3 3:1 1:0 0:2 2:8"/>
    </vehicle>
    <vehicle id="257" depart="102.80">
        <route edges="0:2 2:8"/>
    </vehicle>
    <vehicle id="259" depart="103.60">
        <route edges="2:0 0:1 1:3 3:7"/>
    </vehicle>
    <vehicle id="260" depart="104.00">
        <route edges="10:9 9:0 0:2"/>
    </vehicle>
    <vehicle id="263" depart="105.20">
        <route edges="3:1"/>
    </vehicle>
    <vehicle id="264" depart="105.60">
        <route edges="3:1 1:0 0:2 2:8"/>
    </vehicle>
    <vehicle id="267" depart="106.80">
        <route edges="2:0 0:1"/>
    </vehicle>
    <vehicle id="268" depart="107.20">
        <route edges="8:2 2:0 0:1 1:5 5:6"/>
    </vehicle>
    <vehicle id="269" depart="107.60">
        <route edges="8:2 2:0 0:1 1:5"/>
    </vehicle>
    <vehicle id="272" depart="108.80">
        <route edges="6:5 5:1 1:0 0:2 2:8"/>
    </vehicle>
    <vehicle id="274" depart="109.60">
        <route edges="1:3"/>
    </vehicle>
    <vehicle id="275" depart="110.00">
        <route edges="7:3 3:1 1:5"/>
    </vehicle>
    <vehicle id="276" depart="110.40">
        <route edges="8:2 2:0 0:1 1:3"/>
    </vehicle>
    <vehicle id="278" depart="111.20">
        <route edges="3:1 1:0 0:9 9:10"/>
    </vehicle>
    <vehicle id="279" depart="111.60">
        <route edges="10:9 9:0 0:1 1:3 3:7"/>
    </vehicle>
    <vehicle id="281" depart="112.40">
        <route edges="2:0 0:1 1:3 3:7"/>
    </vehicle>
    <vehicle id="283" depart="113.20">
        <route edges="3:1 1:0 0:2"/>
    </vehicle>
    <vehicle id="290" depart="116.00">
        <route edges="8:2 2:0 0:9"/>
    </vehicle>
    <vehicle id="293" depart="117.20">
        <route edges="6:5 5:1 1:3 3:7"/>
    </vehicle>
    <vehicle id="295" depart="118.00">
        <route edges="10:9 9:0 0:1 1:5 5:6"/>
    </vehicle>
    <vehicle id="296" depart="118.40">
        <route edges="0:1 1:5"/>
    </vehicle>
    <vehicle id="297" depart="118.80">
        <route edges="7:3 3:1 1:0 0:2 2:8"/>
    </vehicle>
    <vehicle id="298" depart="119.20">
        <route edges="3:1"/>
    </vehicle>
    <vehicle id="299" depart="119.60">
        <route edges="8:2 2:0 0:9"/>
    </vehicle>
    <vehicle id="300" depart="120.00">
        <route edges="10:9 9:0 0:1 1:3"/>
    </vehicle>
    <vehicle id="301" depart="120.40">
        <route edges="3:1 1:0 0:2 2:8"/>
    </vehicle>
    <vehicle id="304" depart="121.60">
        <route edges="9:0 0:1 1:3"/>
    </vehicle>
    <vehicle id="307" depart="122.80">
        <route edges="7:3 3:1"/>
    </vehicle>
    <vehicle id="308" depart="123.20">
        <route edges="6:5 5:1"/>
    </vehicle>
    <vehicle id="309" depart="123.60">
        <route edges="7:3 3:1"/>
    </vehicle>
    <vehicle id="311" depart="124.40">
        <route edges="7:3 3:1 1:0 0:2 2:8"/>
    </vehicle>
    <vehicle id="312" depart="124.80">
        <route edges="6:5 5:1 1:3 3:7"/>
    </vehicle>
    <vehicle id="313" depart="125.20">
        <route edges="7:3 3:1 1:5 5:6"/>
    </vehicle>
    <vehicle id="315" depart="126.00">
        <route edges="0:1 1:3 3:7"/>
    </vehicle>
    <vehicle id="319" depart="127.60">
        <route edges="0:1 1:3 3:7"/>
    </vehicle>
    <vehicle id="320" depart="128.00">
        <route edges="5:1 1:0 0:2"/>
    </vehicle>
    <vehicle id="324" depart="129.60">
        <route edges="7:3 3:1 1:0"/>
    </vehicle>
    <vehicle id="328" depart="131.20">
        <route edges="8:2 2:0 0:1"/>
    </vehicle>
    <vehicle id="329" depart="131.60">
        <route edges="0:9 9:10"/>
    </vehicle>
    <vehicle id="331" depart="132.40">
        <route edges="7:3 3:1 1:0 0:2 2:8"/>
    </vehicle>
    <vehicle id="332" depart="132.80">
        <route edges="2:0 0:1 1:3 3:7"/>
    </vehicle>
    <vehicle id="333" depart="133.20">
        <route edges="0:1 1:3 3:7"/>
    </vehicle>
    <vehicle id="334" depart="133.60">
        <route edges="7:3 3:1"/>
    </vehicle>
    <vehicle id="335" depart="134.00">
        <route edges="3:1 1:0 0:2"/>
    </vehicle>
    <vehicle id="337" depart="134.80">
        <route edges="1:3 3:7"/>
    </vehicle>
    <vehicle id="338" depart="135.20">
        <route edges="6:5 5:1 1:0 0:2 2:8"/>
    </vehicle>
    <vehicle id="339" depart="135.60">
        <route edges="3:1 1:0 0:2 2:8"/>
    </vehicle>
    <vehicle id="340" depart="136.00">
        <route edges="3:1 1:0 0:2"/>
    </vehicle>
    <vehicle id="341" depart="136.40">
        <route edges="8:2 2:0 0:1 1:5 5:6"/>
    </vehicle>
    <vehicle id="347" depart="138.80">
        <route edges="3:1"/>
    </vehicle>
    <vehicle id="350" depart="140.00">
        <route edges="3:1 1:0 0:2 2:8"/>
    </vehicle>
    <vehicle id="352" depart="140.80">
        <route edges="0:2 2:8"/>
    </vehicle>
    <vehicle id="353" depart="141.20">
        <route edges="1:0 0:9"/>
    </vehicle>
    <vehicle id="355" depart="142.00">
        <route edges="7:3 3:1 1:0"/>
    </vehicle>
    <vehicle id="356" depart="142.40">
        <route edges="10:9 9:0 0:2 2:8"/>
    </vehicle>
    <vehicle id="360" depart="144.00">
        <route edges="7:3 3:1 1:0 0:9 9:10"/>
    </vehicle>
    <vehicle id="361" depart="144.40">
        <route edges="5:1 1:0 0:2"/>
    </vehicle>
    <vehicle id="362" depart="144.80">
        <route edges="6:5 5:1 1:3"/>
    </vehicle>
    <vehicle id="369" depart="147.60">
        <route edges="10:9 9:0 0:1 1:3"/>
    </vehicle>
    <vehicle id="371" depart="148.40">
        <route edges="8:2 2:0 0:1 1:3"/>
    </vehicle>
    <vehicle id="372" depart="148.80">
        <route edges="6:5 5:1 1:0 0:9 9:10"/>
    </vehicle>
    <vehicle id="375" depart="150.00">
        <route edges="7:3 3:1 1:0 0:2"/>
    </vehicle>
    <vehicle id="376" depart="150.40">
        <route edges="3:1 1:0 0:2 2:8"/>
    </vehicle>
    <vehicle id="377" depart="150.80">
        <route edges="7:3 3:1 1:0"/>
    </vehicle>
    <vehicle id="378" depart="151.20">
        <route edges="7:3 3:1 1:0"/>
    </vehicle>
    <vehicle id="380" depart="152.00">
        <route edges="2:0 0:1 1:5 5:6"/>
    </vehicle>
    <vehicle id="381" depart="152.40">
        <route edges="7:3 3:1 1:5 5:6"/>
    </vehicle>
    <vehicle id="385" depart="154.00">
        <route edges="8:2 2:0 0:1 1:3 3:7"/>
    </vehicle>
    <vehicle id="387" depart="154.80">
        <route edges="3:1 1:0 0:2 2:8"/>
    </vehicle>
    <vehicle id="388" depart="155.20">
        <route edges="3:1"/>
    </vehicle>
    <vehicle id="389" depart="155.60">
        <route edges="0:2 2:8"/>
    </vehicle>
    <vehicle id="391" depart="156.40">
        <route edges="3:1 1:0 0:2"/>
    </vehicle>
    <vehicle id="393" depart="157.20">
        <route edges="7:3 3:1 1:0 0:2"/>
    </vehicle>
    <vehicle id="395" depart="158.00">
        <route edges="7:3 3:1 1:0"/>
    </vehicle>
    <vehicle id="396" depart="158.40">
        <route edges="6:5 5:1 1:3 3:7"/>
    </vehicle>
    <vehicle id="399" depart="159.60">
        <route edges="1:0 0:2"/>
    </vehicle>
    <vehicle id="400" depart="160.00">
        <route edges="8:2 2:0 0:9 9:10"/>
    </vehicle>
    <vehicle id="401" depart="160.40">
        <route edges="6:5 5:1 1:0 0:9"/>
    </vehicle>
    <vehicle id="403" depart="161.20">
        <route edges="6:5 5:1 1:0 0:9 9:10"/>
    </vehicle>
    <vehicle id="404" depart="161.60">
        <route edges="9:0 0:1 1:5"/>
    </vehicle>
    <vehicle id="407" depart="162.80">
        <route edges="10:9 9:0 0:2 2:8"/>
    </vehicle>
    <vehicle id="408" depart="163.20">
        <route edges="8:2 2:0 0:1 1:3 3:7"/>
    </vehicle>
    <vehicle id="411" depart="164.40">
        <route edges="10:9 9:0 0:1 1:3"/>
    </vehicle>
    <vehicle id="412" depart="164.80">
        <route edges="6:5 5:1 1:3"/>
    </vehicle>
    <vehicle id="413" depart="165.20">
        <route edges="3:1 1:5"/>
    </vehicle>
    <vehicle id="415" depart="166.00">
        <route edges="10:9 9:0 0:1 1:3"/>
    </vehicle>
    <vehicle id="416" depart="166.40">
        <route edges="0:2 2:8"/>
    </vehicle>
    <vehicle id="417" depart="166.80">
        <route edges="6:5 5:1 1:0 0:9 9:10"/>
    </vehicle>
    <vehicle id="418" depart="167.20">
        <route edges="8:2 2:0 0:1 1:3"/>
    </vehicle>
    <vehicle id="419" depart="167.60">
        <route edges="7:3 3:1 1:5 5:6"/>
    </vehicle>
    <vehicle id="420" depart="168.00">
        <route edges="7:3 3:1 1:5"/>
    </vehicle>
    <vehicle id="422" depart="168.80">
        <route edges="8:2 2:0 0:1 1:3 3:7"/>
    </vehicle>
    <vehicle id="423" depart="169.20">
        <route edges="3:1 1:0"/>
    </vehicle>
    <vehicle id="427" depart="170.80">
        <route edges="0:1 1:3"/>
    </vehicle>
    <vehicle id="428" depart="171.20">
        <route edges="8:2 2:0 0:1 1:3 3:7"/>
    </vehicle>
    <vehicle id="430" depart="172.00">
        <route edges="7:3 3:1 1:0 0:2 2:8"/>
    </vehicle>
    <vehicle id="432" depart="172.80">
        <route edges="0:1 1:3 3:7"/>
    </vehicle>
    <vehicle id="435" depart="174.00">
        <route edges="7:3 3:1 1:0 0:9 9:10"/>
    </vehicle>
    <vehicle id="441" depart="176.40">
        <route edges="1:0 0:2 2:8"/>
    </vehicle>
    <vehicle id="444" depart="177.60">
        <route edges="6:5 5:1 1:0 0:2 2:8"/>
    </vehicle>
    <vehicle id="445" depart="178.00">
        <route edges="0:1 1:3 3:7"/>
    </vehicle>
    <vehicle id="447" depart="178.80">
        <route edges="1:3"/>
    </vehicle>
    <vehicle id="450" depart="180.00">
        <route edges="10:9 9:0 0:2 2:8"/>
    </vehicle>
    <vehicle id="455" depart="182.00">
        <route edges="8:2 2:0 0:1 1:3 3:7"/>
    </vehicle>
    <vehicle id="458" depart="183.20">
        <route edges="5:1 1:0 0:9"/>
    </vehicle>
    <vehicle id="460" depart="184.00">
        <route edges="9:0 0:1 1:3"/>
    </vehicle>
    <vehicle id="461" depart="184.40">
        <route edges="10:9 9:0 0:1"/>
    </vehicle>
    <vehicle id="462" depart="184.80">
        <route edges="7:3 3:1 1:0"/>
    </vehicle>
    <vehicle id="464" depart="185.60">
        <route edges="3:1 1:0 0:2 2:8"/>
    </vehicle>
    <vehicle id="466" depart="186.40">
        <route edges="1:3"/>
    </vehicle>
    <vehicle id="468" depart="187.20">
        <route edges="8:2 2:0 0:1 1:5 5:6"/>
    </vehicle>
    <vehicle id="471" depart="188.40">
        <route edges="10:9 9:0 0:2 2:8"/>
    </vehicle>
    <vehicle id="473" depart="189.20">
        <route edges="8:2 2:0 0:1 1:3"/>
    </vehicle>
    <vehicle id="475" depart="190.00">
        <route edges="2:0 0:1 1:3"/>
    </vehicle>
    <vehicle id="476" depart="190.40">
        <route edges="3:1 1:0 0:2 2:8"/>
    </vehicle>
    <vehicle id="478" depart="191.20">
        <route edges="6:5 5:1 1:0"/>
    </vehicle>
    <vehicle id="479" depart="191.60">
        <route edges="8:2 2:0 0:1 1:3"/>
    </vehicle>
    <vehicle id="483" depart="193.20">
        <route edges="2:0"/>
    </vehicle>
    <vehicle id="484" depart="193.60">
        <route edges="2:0 0:9"/>
    </vehicle>
    <vehicle id="485" depart="194.00">
        <route edges="6:5 5:1 1:3 3:7"/>
    </vehicle>
    <vehicle id="486" depart="194.40">
        <route edges="3:1 1:0"/>
    </vehicle>
    <vehicle id="487" depart="194.80">
        <route edges="3:1 1:0 0:2"/>
    </vehicle>
    <vehicle id="490" depart="196.00">
        <route edges="2:0 0:1"/>
    </vehicle>
    <vehicle id="491" depart="196.40">
        <route edges="6:5 5:1"/>
    </vehicle>
    <vehicle id="494" depart="197.60">
        <route edges="2:0 0:9 9:10"/>
    </vehicle>
    <vehicle id="496" depart="198.40">
        <route edges="1:3 3:7"/>
    </vehicle>
    <vehicle id="498" depart="199.20">
        <route edges="7:3 3:1 1:5"/>
    </vehicle>
    <vehicle id="504" depart="201.60">
        <route edges="0:2 2:8"/>
    </vehicle>
    <vehicle id="505" depart="202.00">
        <route edges="1:3"/>
    </vehicle>
    <vehicle id="510" depart="204.00">
        <route edges="7:3 3:1 1:5 5:6"/>
    </vehicle>
    <vehicle id="512" depart="204.80">
        <route edges="9:0 0:2"/>
    </vehicle>
    <vehicle id="515" depart="206.00">
        <route edges="7:3 3:1 1:5 5:6"/>
    </vehicle>
    <vehicle id="519" depart="207.60">
        <route edges="8:2 2:0 0:1 1:3 3:7"/>
    </vehicle>
    <vehicle id="520" depart="208.00">
        <route edges="7:3 3:1 1:5 5:6"/>
    </vehicle>
    <vehicle id="523" depart="209.20">
        <route edges="7:3 3:1 1:0 0:9 9:10"/>
    </vehicle>
    <vehicle id="524" depart="209.60">
        <route edges="0:9 9:10"/>
    </vehicle>
    <vehicle id="525" depart="210.00">
        <route edges="2:0"/>
    </vehicle>
    <vehicle id="526" depart="210.40">
        <route edges="8:2 2:0 0:1"/>
    </vehicle>
    <vehicle id="529" depart="211.60">
        <route edges="1:3 3:7"/>
    </vehicle>
    <vehicle id="532" depart="212.80">
        <route edges="8:2 2:0"/>
    </vehicle>
    <vehicle id="533" depart="213.20">
        <route edges="7:3 3:1 1:0 0:9 9:10"/>
    </vehicle>
    <vehicle id="534" depart="213.60">
        <route edges="1:0 0:2 2:8"/>
    </vehicle>
    <vehicle id="537" depart="214.80">
        <route edges="6:5 5:1 1:0"/>
    </vehicle>
    <vehicle id="539" depart="215.60">
        <route edges="3:1 1:5"/>
    </vehicle>
    <vehicle id="540" depart="216.00">
        <route edges="7:3 3:1 1:0 0:9 9:10"/>
    </vehicle>
    <vehicle id="541" depart="216.40">
        <route edges="8:2 2:0 0:1 1:3 3:7"/>
    </vehicle>
    <vehicle id="543" depart="217.20">
        <route edges="8:2 2:0 0:1 1:5 5:6"/>
    </vehicle>
    <vehicle id="544" depart="217.60">
        <route edges="8:2 2:0 0:1 1:3 3:7"/>
    </vehicle>
    <vehicle id="545" depart="218.00">
        <route edges="0:2 2:8"/>
    </vehicle>
    <vehicle id="547" depart="218.80">
        <route edges="7:3 3:1 1:0"/>
    </vehicle>
    <vehicle id="550" depart="220.00">
        <route edges="0:1 1:5 5:6"/>
    </vehicle>
    <vehicle id="556" depart="222.40">
        <route edges="3:1 1:0 0:2 2:8"/>
    </vehicle>
    <vehicle id="557" depart="222.80">
        <route edges="5:1 1:0 0:2 2:8"/>
    </vehicle>
    <vehicle id="558" depart="223.20">
        <route edges="8:2 2:0 0:1 1:3 3:7"/>
    </vehicle>
    <vehicle id="559" depart="223.60">
        <route edges="2:0 0:1 1:5 5:6"/>
    </vehicle>
    <vehicle id="560" depart="224.00">
        <route edges="2:0 0:1 1:3 3:7"/>
    </vehicle>
    <vehicle id="563" depart="225.20">
        <route edges="2:0 0:1 1:3 3:7"/>
    </vehicle>
    <vehicle id="564" depart="225.60">
        <route edges="8:2 2:0 0:1 1:3 3:7"/>
    </vehicle>
    <vehicle id="565" depart="226.00">
        <route edges="1:3 3:7"/>
    </vehicle>
    <vehicle id="566" depart="226.40">
        <route edges="6:5 5:1"/>
    </vehicle>
    <vehicle id="567" depart="226.80">
        <route edges="8:2 2:0"/>
    </vehicle>
    <vehicle id="570" depart="228.00">
        <route edges="3:1"/>
    </vehicle>
    <vehicle id="572" depart="228.80">
        <route edges="3:1 1:5 5:6"/>
    </vehicle>
    <vehicle id="579" depart="231.60">
        <route edges="9:0"/>
    </vehicle>
    <vehicle id="580" depart="232.00">
        <route edges="10:9 9:0 0:2"/>
    </vehicle>
    <vehicle id="581" depart="232.40">
        <route edges="2:0 0:9 9:10"/>
    </vehicle>
    <vehicle id="582" depart="232.80">
        <route edges="0:2 2:8"/>
    </vehicle>
    <vehicle id="584" depart="233.60">
        <route edges="8:2 2:0 0:9 9:10"/>
    </vehicle>
    <vehicle id="586" depart="234.40">
        <route edges="7:3 3:1 1:5"/>
    </vehicle>
    <vehicle id="587" depart="234.80">
        <route edges="7:3 3:1"/>
    </vehicle>
    <vehicle id="591" depart="236.40">
        <route edges="6:5 5:1 1:3 3:7"/>
    </vehicle>
    <vehicle id="592" depart="236.80">
        <route edges="10:9 9:0 0:1 1:3"/>
    </vehicle>
    <vehicle id="593" depart="237.20">
        <route edges="8:2 2:0 0:1 1:3"/>
    </vehicle>
    <vehicle id="595" depart="238.00">
        <route edges="8:2 2:0 0:1 1:3"/>
    </vehicle>
    <vehicle id="597" depart="238.80">
        <route edges="7:3 3:1"/>
    </vehicle>
    <vehicle id="599" depart="239.60">
        <route edges="7:3 3:1 1:0"/>
    </vehicle>
    <vehicle id="600" depart="240.00">
        <route edges="3:1 1:0 0:9"/>
    </vehicle>
    <vehicle id="601" depart="240.40">
        <route edges="2:0 0:1 1:3 3:7"/>
    </vehicle>
    <vehicle id="603" depart="241.20">
        <route edges="9:0 0:1 1:3"/>
    </vehicle>
    <vehicle id="604" depart="241.60">
        <route edges="10:9 9:0 0:1 1:3 3:7"/>
    </vehicle>
    <vehicle id="605" depart="242.00">
        <route edges="5:1 1:3 3:7"/>
    </vehicle>
    <vehicle id="607" depart="242.80">
        <route edges="7:3 3:1 1:0 0:2"/>
    </vehicle>
    <vehicle id="608" depart="243.20">
        <route edges="7:3 3:1 1:0 0:2"/>
    </vehicle>
    <vehicle id="611" depart="244.40">
        <route edges="0:2 2:8"/>
    </vehicle>
    <vehicle id="614" depart="245.60">
        <route edges="8:2 2:0 0:1 1:5 5:6"/>
    </vehicle>
    <vehicle id="616" depart="246.40">
        <route edges="0:2 2:8"/>
    </vehicle>