<?xml version="1.0" encoding="UTF-8"?>

<!-- generated on Thu Feb 13 14:15:34 2014 by SUMO duarouter Version 0.18.0
<?xml version="1.0" encoding="UTF-8"?>

<configuration xmlns:xsi="http://www.w3.org/2001/XMLSchema-instance" xsi:noNamespaceSchemaLocation="http://sumo.sf.net/xsd/duarouterConfiguration.xsd">

    <input>
        <net-file value="twinT.net.xml"/>
        <trip-files value="experimentos/twinT.p0.4.2.trips.xml"/>
    </input>

    <output>
        <output-file value="experimentos/twinT.p0.4.2.rou.xml"/>
    </output>

    <processing>
        <ignore-errors value="true"/>
    </processing>

    <random_number>
        <random value="true"/>
    </random_number>

</configuration>
-->

<routes xmlns:xsi="http://www.w3.org/2001/XMLSchema-instance" xsi:noNamespaceSchemaLocation="http://sumo.sf.net/xsd/routes_file.xsd">
    <vehicle id="1" depart="0.40">
        <route edges="8:2 2:0 0:9 9:10"/>
    </vehicle>
    <vehicle id="2" depart="0.80">
        <route edges="9:0 0:2 2:8"/>
    </vehicle>
    <vehicle id="7" depart="2.80">
        <route edges="6:5 5:1 1:0 0:2"/>
    </vehicle>
    <vehicle id="10" depart="4.00">
        <route edges="8:2 2:0 0:1 1:5 5:6"/>
    </vehicle>
    <vehicle id="11" depart="4.40">
        <route edges="6:5 5:1 1:0 0:2 2:8"/>
    </vehicle>
    <vehicle id="17" depart="6.80">
        <route edges="9:0 0:1 1:5 5:6"/>
    </vehicle>
    <vehicle id="20" depart="8.00">
        <route edges="7:3 3:1 1:0 0:2 2:8"/>
    </vehicle>
    <vehicle id="22" depart="8.80">
        <route edges="9:0 0:2 2:8"/>
    </vehicle>
    <vehicle id="23" depart="9.20">
        <route edges="2:0 0:1 1:5"/>
    </vehicle>
    <vehicle id="29" depart="11.60">
        <route edges="8:2 2:0 0:1 1:5"/>
    </vehicle>
    <vehicle id="33" depart="13.20">
        <route edges="6:5 5:1 1:0 0:9 9:10"/>
    </vehicle>
    <vehicle id="34" depart="13.60">
        <route edges="3:1 1:0 0:2 2:8"/>
    </vehicle>
    <vehicle id="38" depart="15.20">
        <route edges="8:2 2:0 0:1 1:5"/>
    </vehicle>
    <vehicle id="41" depart="16.40">
        <route edges="3:1 1:5 5:6"/>
    </vehicle>
    <vehicle id="42" depart="16.80">
        <route edges="8:2 2:0"/>
    </vehicle>
    <vehicle id="43" depart="17.20">
        <route edges="6:5 5:1 1:0 0:2"/>
    </vehicle>
    <vehicle id="44" depart="17.60">
        <route edges="7:3 3:1 1:0 0:9"/>
    </vehicle>
    <vehicle id="45" depart="18.00">
        <route edges="8:2 2:0"/>
    </vehicle>
    <vehicle id="46" depart="18.40">
        <route edges="9:0 0:1 1:5"/>
    </vehicle>
    <vehicle id="47" depart="18.80">
        <route edges="3:1 1:0 0:9 9:10"/>
    </vehicle>
    <vehicle id="48" depart="19.20">
        <route edges="8:2 2:0"/>
    </vehicle>
    <vehicle id="49" depart="19.60">
        <route edges="5:1 1:3"/>
    </vehicle>
    <vehicle id="50" depart="20.00">
        <route edges="10:9 9:0 0:1 1:5 5:6"/>
    </vehicle>
    <vehicle id="54" depart="21.60">
        <route edges="10:9 9:0 0:2"/>
    </vehicle>
    <vehicle id="57" depart="22.80">
        <route edges="8:2 2:0 0:1 1:5 5:6"/>
    </vehicle>
    <vehicle id="63" depart="25.20">
        <route edges="7:3 3:1 1:0 0:2"/>
    </vehicle>
    <vehicle id="66" depart="26.40">
        <route edges="10:9 9:0 0:1 1:5"/>
    </vehicle>
    <vehicle id="69" depart="27.60">
        <route edges="7:3 3:1 1:0 0:9 9:10"/>
    </vehicle>
    <vehicle id="70" depart="28.00">
        <route edges="1:5"/>
    </vehicle>
    <vehicle id="71" depart="28.40">
        <route edges="9:0"/>
    </vehicle>
    <vehicle id="72" depart="28.80">
        <route edges="7:3 3:1 1:0 0:9 9:10"/>
    </vehicle>
    <vehicle id="75" depart="30.00">
        <route edges="2:0 0:1 1:5"/>
    </vehicle>
    <vehicle id="76" depart="30.40">
        <route edges="10:9 9:0 0:2 2:8"/>
    </vehicle>
    <vehicle id="77" depart="30.80">
        <route edges="2:0 0:9 9:10"/>
    </vehicle>
    <vehicle id="81" depart="32.40">
        <route edges="3:1 1:0 0:2"/>
    </vehicle>
    <vehicle id="83" depart="33.20">
        <route edges="2:0 0:9 9:10"/>
    </vehicle>
    <vehicle id="88" depart="35.20">
        <route edges="10:9 9:0 0:2 2:8"/>
    </vehicle>
    <vehicle id="89" depart="35.60">
        <route edges="3:1"/>
    </vehicle>
    <vehicle id="93" depart="37.20">
        <route edges="7:3 3:1"/>
    </vehicle>
    <vehicle id="94" depart="37.60">
        <route edges="1:3 3:7"/>
    </vehicle>
    <vehicle id="95" depart="38.00">
        <route edges="8:2 2:0"/>
    </vehicle>
    <vehicle id="98" depart="39.20">
        <route edges="7:3 3:1 1:5"/>
    </vehicle>
    <vehicle id="99" depart="39.60">
        <route edges="8:2 2:0"/>
    </vehicle>
    <vehicle id="100" depart="40.00">
        <route edges="10:9 9:0 0:1 1:3"/>
    </vehicle>
    <vehicle id="105" depart="42.00">
        <route edges="0:9 9:10"/>
    </vehicle>
    <vehicle id="106" depart="42.40">
        <route edges="8:2 2:0 0:1 1:5 5:6"/>
    </vehicle>
    <vehicle id="112" depart="44.80">
        <route edges="1:5"/>
    </vehicle>
    <vehicle id="115" depart="46.00">
        <route edges="3:1 1:0 0:2 2:8"/>
    </vehicle>
    <vehicle id="117" depart="46.80">
        <route edges="2:0"/>
    </vehicle>
    <vehicle id="118" depart="47.20">
        <route edges="0:2 2:8"/>
    </vehicle>
    <vehicle id="119" depart="47.60">
        <route edges="8:2 2:0 0:1 1:3 3:7"/>
    </vehicle>
    <vehicle id="120" depart="48.00">
        <route edges="3:1 1:0 0:2 2:8"/>
    </vehicle>
    <vehicle id="122" depart="48.80">
        <route edges="8:2 2:0 0:1 1:3 3:7"/>
    </vehicle>
    <vehicle id="123" depart="49.20">
        <route edges="0:2 2:8"/>
    </vehicle>
    <vehicle id="124" depart="49.60">
        <route edges="6:5 5:1 1:0 0:2 2:8"/>
    </vehicle>
    <vehicle id="125" depart="50.00">
        <route edges="10:9 9:0 0:2 2:8"/>
    </vehicle>
    <vehicle id="126" depart="50.40">
        <route edges="6:5 5:1 1:0 0:2 2:8"/>
    </vehicle>
    <vehicle id="127" depart="50.80">
        <route edges="0:1"/>
    </vehicle>
    <vehicle id="129" depart="51.60">
        <route edges="7:3 3:1 1:0"/>
    </vehicle>
    <vehicle id="130" depart="52.00">
        <route edges="2:0"/>
    </vehicle>
    <vehicle id="131" depart="52.40">
        <route edges="10:9 9:0 0:1 1:5 5:6"/>
    </vehicle>
    <vehicle id="133" depart="53.20">
        <route edges="0:2 2:8"/>
    </vehicle>
    <vehicle id="136" depart="54.40">
        <route edges="2:0 0:1 1:3 3:7"/>
    </vehicle>
    <vehicle id="139" depart="55.60">
        <route edges="8:2 2:0 0:9 9:10"/>
    </vehicle>
    <vehicle id="140" depart="56.00">
        <route edges="8:2 2:0 0:1 1:3 3:7"/>
    </vehicle>
    <vehicle id="141" depart="56.40">
        <route edges="7:3 3:1 1:0 0:2 2:8"/>
    </vehicle>
    <vehicle id="142" depart="56.80">
        <route edges="7:3 3:1 1:5 5:6"/>
    </vehicle>
    <vehicle id="146" depart="58.40">
        <route edges="5:1 1:3"/>
    </vehicle>
    <vehicle id="147" depart="58.80">
        <route edges="10:9 9:0 0:2 2:8"/>
    </vehicle>
    <vehicle id="149" depart="59.60">
        <route edges="6:5 5:1 1:0"/>
    </vehicle>
    <vehicle id="150" depart="60.00">
        <route edges="7:3 3:1 1:0 0:2 2:8"/>
    </vehicle>
    <vehicle id="151" depart="60.40">
        <route edges="7:3 3:1"/>
    </vehicle>
    <vehicle id="153" depart="61.20">
        <route edges="10:9 9:0 0:1"/>
    </vehicle>
    <vehicle id="155" depart="62.00">
        <route edges="0:1 1:3"/>
    </vehicle>
    <vehicle id="156" depart="62.40">
        <route edges="3:1"/>
    </vehicle>
    <vehicle id="159" depart="63.60">
        <route edges="8:2 2:0 0:1 1:5 5:6"/>
    </vehicle>
    <vehicle id="161" depart="64.40">
        <route edges="8:2 2:0 0:1 1:3 3:7"/>
    </vehicle>
    <vehicle id="162" depart="64.80">
        <route edges="8:2 2:0"/>
    </vehicle>
    <vehicle id="165" depart="66.00">
        <route edges="6:5 5:1 1:3"/>
    </vehicle>
    <vehicle id="171" depart="68.40">
        <route edges="5:1"/>
    </vehicle>
    <vehicle id="173" depart="69.20">
        <route edges="3:1 1:5 5:6"/>
    </vehicle>
    <vehicle id="174" depart="69.60">
        <route edges="8:2 2:0 0:1 1:3 3:7"/>
    </vehicle>
    <vehicle id="177" depart="70.80">
        <route edges="10:9 9:0 0:1 1:3 3:7"/>
    </vehicle>
    <vehicle id="179" depart="71.60">
        <route edges="10:9 9:0 0:1"/>
    </vehicle>
    <vehicle id="180" depart="72.00">
        <route edges="7:3 3:1 1:0 0:2"/>
    </vehicle>
    <vehicle id="181" depart="72.40">
        <route edges="7:3 3:1 1:5"/>
    </vehicle>
    <vehicle id="182" depart="72.80">
        <route edges="3:1 1:0"/>
    </vehicle>
    <vehicle id="184" depart="73.60">
        <route edges="2:0 0:1 1:3 3:7"/>
    </vehicle>
    <vehicle id="186" depart="74.40">
        <route edges="8:2 2:0 0:9"/>
    </vehicle>
    <vehicle id="187" depart="74.80">
        <route edges="8:2 2:0 0:1 1:5 5:6"/>
    </vehicle>
    <vehicle id="188" depart="75.20">
        <route edges="7:3 3:1 1:0"/>
    </vehicle>
    <vehicle id="194" depart="77.60">
        <route edges="3:1 1:0"/>
    </vehicle>
    <vehicle id="197" depart="78.80">
        <route edges="7:3 3:1 1:0 0:2 2:8"/>
    </vehicle>
    <vehicle id="198" depart="79.20">
        <route edges="7:3 3:1 1:5"/>
    </vehicle>
    <vehicle id="199" depart="79.60">
        <route edges="0:2"/>
    </vehicle>
    <vehicle id="200" depart="80.00">
        <route edges="3:1 1:5 5:6"/>
    </vehicle>
    <vehicle id="201" depart="80.40">
        <route edges="8:2 2:0 0:1 1:5 5:6"/>
    </vehicle>
    <vehicle id="205" depart="82.00">
        <route edges="8:2 2:0 0:9 9:10"/>
    </vehicle>
    <vehicle id="207" depart="82.80">
        <route edges="2:0 0:1 1:3"/>
    </vehicle>
    <vehicle id="208" depart="83.20">
        <route edges="7:3 3:1 1:5"/>
    </vehicle>
    <vehicle id="209" depart="83.60">
        <route edges="10:9 9:0 0:1 1:3"/>
    </vehicle>
    <vehicle id="214" depart="85.60">
        <route edges="9:0 0:1 1:3"/>
    </vehicle>
    <vehicle id="216" depart="86.40">
        <route edges="8:2 2:0 0:1 1:3 3:7"/>
    </vehicle>
    <vehicle id="219" depart="87.60">
        <route edges="8:2 2:0"/>
    </vehicle>
    <vehicle id="222" depart="88.80">
        <route edges="8:2 2:0 0:1 1:3"/>
    </vehicle>
    <vehicle id="224" depart="89.60">
        <route edges="1:0 0:2 2:8"/>
    </vehicle>
    <vehicle id="227" depart="90.80">
        <route edges="6:5 5:1 1:3"/>
    </vehicle>
    <vehicle id="230" depart="92.00">
        <route edges="9:0 0:2 2:8"/>
    </vehicle>
    <vehicle id="236" depart="94.40">
        <route edges="9:0 0:2 2:8"/>
    </vehicle>
    <vehicle id="237" depart="94.80">
        <route edges="7:3 3:1"/>
    </vehicle>
    <vehicle id="238" depart="95.20">
        <route edges="2:0 0:1 1:3 3:7"/>
    </vehicle>
    <vehicle id="239" depart="95.60">
        <route edges="7:3 3:1 1:5 5:6"/>
    </vehicle>
    <vehicle id="240" depart="96.00">
        <route edges="6:5 5:1 1:3 3:7"/>
    </vehicle>
    <vehicle id="244" depart="97.60">
        <route edges="9:0 0:1 1:3 3:7"/>
    </vehicle>
    <vehicle id="246" depart="98.40">
        <route edges="8:2 2:0 0:9 9:10"/>
    </vehicle>
    <vehicle id="248" depart="99.20">
        <route edges="7:3 3:1 1:5"/>
    </vehicle>
    <vehicle id="252" depart="100.80">
        <route edges="8:2 2:0"/>
    </vehicle>
    <vehicle id="255" depart="102.00">
        <route edges="7:3 3:1 1:0"/>
    </vehicle>
    <vehicle id="256" depart="102.40">
        <route edges="7:3 3:1 1:0 0:2"/>
    </vehicle>
    <vehicle id="257" depart="102.80">
        <route edges="2:0 0:9 9:10"/>
    </vehicle>
    <vehicle id="259" depart="103.60">
        <route edges="1:3 3:7"/>
    </vehicle>
    <vehicle id="260" depart="104.00">
        <route edges="0:2 2:8"/>
    </vehicle>
    <vehicle id="261" depart="104.40">
        <route edges="8:2 2:0 0:1 1:3"/>
    </vehicle>
    <vehicle id="263" depart="105.20">
        <route edges="5:1 1:3 3:7"/>
    </vehicle>
    <vehicle id="264" depart="105.60">
        <route edges="5:1 1:0 0:2 2:8"/>
    </vehicle>
    <vehicle id="266" depart="106.40">
        <route edges="2:0 0:1 1:3"/>
    </vehicle>
    <vehicle id="267" depart="106.80">
        <route edges="6:5 5:1 1:3 3:7"/>
    </vehicle>
    <vehicle id="269" depart="107.60">
        <route edges="8:2 2:0"/>
    </vehicle>
    <vehicle id="270" depart="108.00">
        <route edges="8:2 2:0 0:1 1:3"/>
    </vehicle>
    <vehicle id="271" depart="108.40">
        <route edges="0:1 1:5"/>
    </vehicle>
    <vehicle id="273" depart="109.20">
        <route edges="8:2 2:0 0:1 1:3 3:7"/>
    </vehicle>
    <vehicle id="276" depart="110.40">
        <route edges="2:0 0:1"/>
    </vehicle>
    <vehicle id="280" depart="112.00">
        <route edges="10:9 9:0 0:1 1:5"/>
    </vehicle>
    <vehicle id="281" depart="112.40">
        <route edges="7:3 3:1 1:0 0:9 9:10"/>
    </vehicle>
    <vehicle id="284" depart="113.60">
        <route edges="7:3 3:1 1:0 0:9 9:10"/>
    </vehicle>
    <vehicle id="285" depart="114.00">
        <route edges="3:1"/>
    </vehicle>
    <vehicle id="286" depart="114.40">
        <route edges="1:3 3:7"/>
    </vehicle>
    <vehicle id="287" depart="114.80">
        <route edges="7:3 3:1"/>
    </vehicle>
    <vehicle id="295" depart="118.00">
        <route edges="5:1 1:0 0:2 2:8"/>
    </vehicle>
    <vehicle id="297" depart="118.80">
        <route edges="3:1 1:0 0:2"/>
    </vehicle>
    <vehicle id="298" depart="119.20">
        <route edges="5:1 1:0 0:2 2:8"/>
    </vehicle>
    <vehicle id="300" depart="120.00">
        <route edges="5:1 1:0"/>
    </vehicle>
    <vehicle id="305" depart="122.00">
        <route edges="6:5 5:1 1:0 0:9 9:10"/>
    </vehicle>
    <vehicle id="306" depart="122.40">
        <route edges="10:9 9:0 0:1"/>
    </vehicle>
    <vehicle id="307" depart="122.80">
        <route edges="7:3 3:1 1:5 5:6"/>
    </vehicle>
    <vehicle id="308" depart="123.20">
        <route edges="2:0 0:1 1:3"/>
    </vehicle>
    <vehicle id="311" depart="124.40">
        <route edges="7:3 3:1 1:0 0:2"/>
    </vehicle>
    <vehicle id="313" depart="125.20">
        <route edges="7:3 3:1 1:0 0:9"/>
    </vehicle>
    <vehicle id="314" depart="125.60">
        <route edges="7:3 3:1 1:0 0:9"/>
    </vehicle>
    <vehicle id="316" depart="126.40">
        <route edges="6:5 5:1 1:0 0:2 2:8"/>
    </vehicle>
    <vehicle id="318" depart="127.20">
        <route edges="6:5 5:1 1:3 3:7"/>
    </vehicle>
    <vehicle id="319" depart="127.60">
        <route edges="6:5 5:1"/>
    </vehicle>
    <vehicle id="320" depart="128.00">
        <route edges="1:0 0:9 9:10"/>
    </vehicle>
    <vehicle id="323" depart="129.20">
        <route edges="3:1"/>
    </vehicle>
    <vehicle id="324" depart="129.60">
        <route edges="7:3 3:1 1:0 0:2 2:8"/>
    </vehicle>
    <vehicle id="325" depart="130.00">
        <route edges="8:2 2:0 0:1 1:5"/>
    </vehicle>
    <vehicle id="326" depart="130.40">
        <route edges="1:0"/>
    </vehicle>
    <vehicle id="327" depart="130.80">
        <route edges="6:5 5:1 1:0 0:2"/>
    </vehicle>
    <vehicle id="330" depart="132.00">
        <route edges="8:2 2:0 0:1 1:5 5:6"/>
    </vehicle>
    <vehicle id="331" depart="132.40">
        <route edges="8:2 2:0 0:1"/>
    </vehicle>
    <vehicle id="333" depart="133.20">
        <route edges="7:3 3:1 1:0 0:2"/>
    </vehicle>
    <vehicle id="335" depart="134.00">
        <route edges="1:3"/>
    </vehicle>
    <vehicle id="336" depart="134.40">
        <route edges="8:2 2:0 0:1 1:3 3:7"/>
    </vehicle>
    <vehicle id="339" depart="135.60">
        <route edges="3:1 1:0"/>
    </vehicle>
    <vehicle id="341" depart="136.40">
        <route edges="3:1 1:5"/>
    </vehicle>
    <vehicle id="342" depart="136.80">
        <route edges="0:2 2:8"/>
    </vehicle>
    <vehicle id="343" depart="137.20">
        <route edges="7:3 3:1 1:0 0:9"/>
    </vehicle>
    <vehicle id="345" depart="138.00">
        <route edges="9:0 0:2 2:8"/>
    </vehicle>
    <vehicle id="348" depart="139.20">
        <route edges="8:2 2:0 0:1 1:3"/>
    </vehicle>
    <vehicle id="349" depart="139.60">
        <route edges="2:0 0:1 1:3 3:7"/>
    </vehicle>
    <vehicle id="350" depart="140.00">
        <route edges="2:0 0:1 1:3"/>
    </vehicle>
    <vehicle id="351" depart="140.40">
        <route edges="7:3 3:1 1:0 0:9 9:10"/>
    </vehicle>
    <vehicle id="352" depart="140.80">
        <route edges="8:2 2:0 0:1 1:3 3:7"/>
    </vehicle>
    <vehicle id="355" depart="142.00">
        <route edges="8:2 2:0 0:9"/>
    </vehicle>
    <vehicle id="357" depart="142.80">
        <route edges="6:5 5:1 1:3"/>
    </vehicle>
    <vehicle id="361" depart="144.40">
        <route edges="9:0"/>
    </vehicle>
    <vehicle id="362" depart="144.80">
        <route edges="8:2 2:0 0:1 1:3 3:7"/>
    </vehicle>
    <vehicle id="363" depart="145.20">
        <route edges="8:2 2:0 0:1"/>
    </vehicle>
    <vehicle id="364" depart="145.60">
        <route edges="8:2 2:0 0:9"/>
    </vehicle>
    <vehicle id="366" depart="146.40">
        <route edges="3:1 1:0 0:2 2:8"/>
    </vehicle>
    <vehicle id="367" depart="146.80">
        <route edges="7:3 3:1 1:5"/>
    </vehicle>
    <vehicle id="369" depart="147.60">
        <route edges="8:2 2:0 0:1 1:3 3:7"/>
    </vehicle>
    <vehicle id="371" depart="148.40">
        <route edges="1:0 0:2 2:8"/>
    </vehicle>
    <vehicle id="378" depart="151.20">
        <route edges="2:0 0:1 1:5 5:6"/>
    </vehicle>
    <vehicle id="380" depart="152.00">
        <route edges="2:0 0:1 1:3"/>
    </vehicle>
    <vehicle id="384" depart="153.60">
        <route edges="8:2 2:0 0:1 1:3"/>
    </vehicle>
    <vehicle id="385" depart="154.00">
        <route edges="9:0"/>
    </vehicle>
    <vehicle id="387" depart="154.80">
        <route edges="7:3 3:1 1:0 0:2 2:8"/>
    </vehicle>
    <vehicle id="388" depart="155.20">
        <route edges="6:5 5:1 1:0 0:9 9:10"/>
    </vehicle>
    <vehicle id="392" depart="156.80">
        <route edges="6:5 5:1 1:0 0:9"/>
    </vehicle>
    <vehicle id="395" depart="158.00">
        <route edges="1:0 0:2"/>
    </vehicle>
    <vehicle id="397" depart="158.80">
        <route edges="7:3 3:1 1:0 0:2 2:8"/>
    </vehicle>
    <vehicle id="399" depart="159.60">
        <route edges="1:0 0:2 2:8"/>
    </vehicle>
    <vehicle id="403" depart="161.20">
        <route edges="5:1 1:0 0:2 2:8"/>
    </vehicle>
    <vehicle id="405" depart="162.00">
        <route edges="0:2 2:8"/>
    </vehicle>
    <vehicle id="406" depart="162.40">
        <route edges="6:5 5:1 1:3 3:7"/>
    </vehicle>
    <vehicle id="408" depart="163.20">
        <route edges="0:1 1:5 5:6"/>
    </vehicle>
    <vehicle id="409" depart="163.60">
        <route edges="9:0 0:1 1:3 3:7"/>
    </vehicle>
    <vehicle id="412" depart="164.80">
        <route edges="7:3 3:1 1:0 0:2"/>
    </vehicle>
    <vehicle id="420" depart="168.00">
        <route edges="7:3 3:1 1:5"/>
    </vehicle>
    <vehicle id="422" depart="168.80">
        <route edges="10:9 9:0 0:1 1:5"/>
    </vehicle>
    <vehicle id="423" depart="169.20">
        <route edges="8:2 2:0 0:1 1:3 3:7"/>
    </vehicle>
    <vehicle id="424" depart="169.60">
        <route edges="8:2 2:0 0:1 1:3 3:7"/>
    </vehicle>
    <vehicle id="427" depart="170.80">
        <route edges="6:5 5:1 1:0 0:9"/>
    </vehicle>
    <vehicle id="431" depart="172.40">
        <route edges="8:2 2:0 0:1 1:5"/>
    </vehicle>
    <vehicle id="432" depart="172.80">
        <route edges="5:1 1:3 3:7"/>
    </vehicle>
    <vehicle id="433" depart="173.20">
        <route edges="5:1"/>
    </vehicle>
    <vehicle id="435" depart="174.00">
        <route edges="6:5 5:1 1:3 3:7"/>
    </vehicle>
    <vehicle id="436" depart="174.40">
        <route edges="8:2 2:0 0:9 9:10"/>
    </vehicle>
    <vehicle id="437" depart="174.80">
        <route edges="5:1 1:3"/>
    </vehicle>
    <vehicle id="443" depart="177.20">
        <route edges="6:5 5:1 1:0 0:2 2:8"/>
    </vehicle>
    <vehicle id="444" depart="177.60">
        <route edges="10:9 9:0 0:1 1:3"/>
    </vehicle>
    <vehicle id="447" depart="178.80">
        <route edges="3:1 1:0 0:2 2:8"/>
    </vehicle>
    <vehicle id="449" depart="179.60">
        <route edges="7:3 3:1 1:5"/>
    </vehicle>
    <vehicle id="450" depart="180.00">
        <route edges="8:2 2:0 0:1 1:5 5:6"/>
    </vehicle>
    <vehicle id="455" depart="182.00">
        <route edges="7:3 3:1 1:0 0:2"/>
    </vehicle>
    <vehicle id="456" depart="182.40">
        <route edges="6:5 5:1 1:0"/>
    </vehicle>
    <vehicle id="459" depart="183.60">
        <route edges="7:3 3:1"/>
    </vehicle>
    <vehicle id="460" depart="184.00">
        <route edges="0:2 2:8"/>
    </vehicle>
    <vehicle id="461" depart="184.40">
        <route edges="8:2 2:0 0:1 1:3"/>
    </vehicle>
    <vehicle id="468" depart="187.20">
        <route edges="9:0 0:1 1:3"/>
    </vehicle>
    <vehicle id="471" depart="188.40">
        <route edges="7:3 3:1 1:0 0:9"/>
    </vehicle>
    <vehicle id="472" depart="188.80">
        <route edges="1:3 3:7"/>
    </vehicle>
    <vehicle id="476" depart="190.40">
        <route edges="0:1 1:5 5:6"/>
    </vehicle>
    <vehicle id="478" depart="191.20">
        <route edges="0:1 1:5 5:6"/>
    </vehicle>
    <vehicle id="479" depart="191.60">
        <route edges="6:5 5:1 1:0"/>
    </vehicle>
    <vehicle id="480" depart="192.00">
        <route edges="1:0 0:2 2:8"/>
    </vehicle>
    <vehicle id="481" depart="192.40">
        <route edges="10:9 9:0 0:1 1:5"/>
    </vehicle>
    <vehicle id="482" depart="192.80">
        <route edges="10:9 9:0 0:1 1:3 3:7"/>
    </vehicle>
    <vehicle id="483" depart="193.20">
        <route edges="9:0 0:1 1:3 3:7"/>
    </vehicle>
    <vehicle id="484" depart="193.60">
        <route edges="8:2 2:0 0:1 1:3"/>
    </vehicle>
    <vehicle id="488" depart="195.20">
        <route edges="8:2 2:0 0:1 1:3 3:7"/>
    </vehicle>
    <vehicle id="490" depart="196.00">
        <route edges="8:2 2:0 0:1"/>
    </vehicle>
    <vehicle id="492" depart="196.80">
        <route edges="10:9 9:0 0:2 2:8"/>
    </vehicle>
    <vehicle id="493" depart="197.20">
        <route edges="7:3 3:1 1:5"/>
    </vehicle>
    <vehicle id="498" depart="199.20">
        <route edges="9:0 0:1 1:3 3:7"/>
    </vehicle>
    <vehicle id="500" depart="200.00">
        <route edges="10:9 9:0 0:1 1:5 5:6"/>
    </vehicle>
    <vehicle id="501" depart="200.40">
        <route edges="10:9 9:0 0:1 1:3 3:7"/>
    </vehicle>
    <vehicle id="502" depart="200.80">
        <route edges="3:1"/>
    </vehicle>
    <vehicle id="504" depart="201.60">
        <route edges="6:5 5:1 1:0"/>
    </vehicle>
    <vehicle id="513" depart="205.20">
        <route edges="8:2 2:0 0:1 1:3 3:7"/>
    </vehicle>
    <vehicle id="518" depart="207.20">
        <route edges="7:3 3:1 1:0 0:9 9:10"/>
    </vehicle>
    <vehicle id="519" depart="207.60">
        <route edges="8:2 2:0 0:1"/>
    </vehicle>
    <vehicle id="520" depart="208.00">
        <route edges="6:5 5:1 1:3"/>
    </vehicle>
    <vehicle id="521" depart="208.40">
        <route edges="8:2 2:0 0:1 1:3"/>
    </vehicle>
    <vehicle id="524" depart="209.60">
        <route edges="0:1 1:5 5:6"/>
    </vehicle>
    <vehicle id="526" depart="210.40">
        <route edges="7:3 3:1 1:0 0:2 2:8"/>
    </vehicle>
    <vehicle id="528" depart="211.20">
        <route edges="8:2 2:0 0:1 1:3"/>
    </vehicle>
    <vehicle id="529" depart="211.60">
        <route edges="6:5 5:1 1:0"/>
    </vehicle>
    <vehicle id="531" depart="212.40">
        <route edges="2:0 0:1 1:3"/>
    </vehicle>
    <vehicle id="532" depart="212.80">
        <route edges="2:0 0:1 1:3 3:7"/>
    </vehicle>
    <vehicle id="534" depart="213.60">
        <route edges="7:3 3:1 1:0 0:9"/>
    </vehicle>
    <vehicle id="536" depart="214.40">
        <route edges="7:3 3:1 1:0 0:9 9:10"/>
    </vehicle>
    <vehicle id="538" depart="215.20">
        <route edges="6:5 5:1 1:0 0:2 2:8"/>
    </vehicle>
    <vehicle id="540" depart="216.00">
        <route edges="8:2 2:0 0:1 1:3"/>
    </vehicle>
    <vehicle id="543" depart="217.20">
        <route edges="5:1 1:0"/>
    </vehicle>
    <vehicle id="549" depart="219.60">
        <route edges="8:2 2:0 0:1 1:5"/>
    </vehicle>
    <vehicle id="551" depart="220.40">
        <route edges="7:3 3:1"/>
    </vehicle>
    <vehicle id="553" depart="221.20">
        <route edges="0:2"/>
    </vehicle>
    <vehicle id="555" depart="222.00">
        <route edges="7:3 3:1 1:0 0:9 9:10"/>
    </vehicle>
    <vehicle id="560" depart="224.00">
        <route edges="8:2 2:0 0:1 1:5 5:6"/>
    </vehicle>
    <vehicle id="563" depart="225.20">
        <route edges="7:3 3:1 1:5 5:6"/>
    </vehicle>
    <vehicle id="566" depart="226.40">
        <route edges="1:3"/>
    </vehicle>
    <vehicle id="567" depart="226.80">
        <route edges="6:5 5:1 1:0 0:9"/>
    </vehicle>
    <vehicle id="571" depart="228.40">
        <route edges="8:2 2:0 0:9"/>
    </vehicle>
    <vehicle id="572" depart="228.80">
        <route edges="7:3 3:1 1:0 0:2"/>
    </vehicle>
    <vehicle id="574" depart="229.60">
        <route edges="2:0 0:1 1:3"/>
    </vehicle>
    <vehicle id="577" depart="230.80">
        <route edges="7:3 3:1 1:0 0:2 2:8"/>
    </vehicle>
    <vehicle id="579" depart="231.60">
        <route edges="8:2 2:0 0:1 1:3 3:7"/>
    </vehicle>
    <vehicle id="580" depart="232.00">
        <route edges="10:9 9:0 0:2"/>
    </vehicle>
    <vehicle id="581" depart="232.40">
        <route edges="8:2 2:0 0:9 9:10"/>
    </vehicle>
    <vehicle id="583" depart="233.20">
        <route edges="2:0 0:1"/>
    </vehicle>
    <vehicle id="586" depart="234.40">
        <route edges="8:2 2:0 0:1 1:5 5:6"/>
    </vehicle>
    <vehicle id="588" depart="235.20">
        <route edges="9:0 0:1 1:3 3:7"/>
    </vehicle>
    <vehicle id="590" depart="236.00">
        <route edges="0:1 1:3 3:7"/>
    </vehicle>
    <vehicle id="594" depart="237.60">
        <route edges="3:1 1:0 0:9 9:10"/>
    </vehicle>
    <vehicle id="595" depart="238.00">
        <route edges="8:2 2:0 0:1 1:5 5:6"/>
    </vehicle>
    <vehicle id="597" depart="238.80">
        <route edges="6:5 5:1 1:0 0:2 2:8"/>
    </vehicle>
    <vehicle id="601" depart="240.40">
        <route edges="7:3 3:1 1:5"/>
    </vehicle>
    <vehicle id="602" depart="240.80">
        <route edges="1:0 0:2 2:8"/>
    </vehicle>
    <vehicle id="603" depart="241.20">
        <route edges="7:3 3:1 1:5 5:6"/>
    </vehicle>
    <vehicle id="604" depart="241.60">
        <route edges="2:0 0:1 1:3 3:7"/>
    </vehicle>
    <vehicle id="605" depart="242.00">
        <route edges="2:0 0:1 1:5 5:6"/>
    </vehicle>
    <vehicle id="606" depart="242.40">
        <route edges="7:3 3:1 1:5"/>
    </vehicle>
    <vehicle id="608" depart="243.20">
        <route edges="3:1 1:0 0:2 2:8"/>
    </vehicle>
    <vehicle id="615" depart="246.00">
        <route edges="7:3 3:1"/>
    </vehicle>
    <vehicle id="618" depart="247.20">
        <route edges="8:2 2:0 0:9 9:10"/>
    </vehicle>
    <vehicle id="620" depart="248.00">
        <route edges="7:3 3:1 1:0 0:9"/>
    </vehicle>
    <vehicle id="623" depart="249.20">
        <route edges="0:2"/>
    </vehicle>
    <vehicle id="627" depart="250.80">
        <route edges="0:2 2:8"/>
    </vehicle>
    <vehicle id="630" depart="252.00">
        <route edges="3:1 1:0 0:2 2:8"/>
    </vehicle>
    <vehicle id="633" depart="253.20">
        <route edges="7:3 3:1"/>
    </vehicle>
    <vehicle id="636" depart="254.40">
        <route edges="7:3 3:1 1:0 0:2"/>
    </vehicle>
    <vehicle id="637" depart="254.80">
        <route edges="5:1 1:3 3:7"/>
    </vehicle>
    <vehicle id="638" depart="255.20">
        <route edges="2:0 0:1 1:3 3:7"/>
    </vehicle>
    <vehicle id="639" depart="255.60">
        <route edges="6:5 5:1 1:3 3:7"/>
    </vehicle>
    <vehicle id="640" depart="256.00">
        <route edges="0:1 1:3 3:7"/>
    </vehicle>
    <vehicle id="641" depart="256.40">
        <route edges="8:2 2:0"/>
    </vehicle>
    <vehicle id="643" depart="257.20">
        <route edges="8:2 2:0 0:1 1:3 3:7"/>
    </vehicle>
    <vehicle id="644" depart="257.60">
        <route edges="8:2 2:0 0:9"/>
    </vehicle>
    <vehicle id="645" depart="258.00">
        <route edges="7:3 3:1 1:5"/>
    </vehicle>
    <vehicle id="646" depart="258.40">
        <route edges="10:9 9:0 0:1 1:3 3:7"/>
    </vehicle>
    <vehicle id="647" depart="258.80">
        <route edges="5:1 1:0 0:9 9:10"/>
    </vehicle>
    <vehicle id="648" depart="259.20">
        <route edges="6:5 5:1 1:0 0:2 2:8"/>
    </vehicle>
    <vehicle id="650" depart="260.00">
        <route edges="6:5 5:1 1:3 3:7"/>
    </vehicle>
    <vehicle id="651" depart="260.40">
        <route edges="10:9 9:0 0:1 1:5"/>
    </vehicle>
    <vehicle id="654" depart="261.60">
        <route edges="6:5 5:1 1:0 0:2 2:8"/>
    </vehicle>
    <vehicle id="656" depart="262.40">
        <route edges="7:3 3:1 1:0 0:9"/>
    </vehicle>
    <vehicle id="657" depart="262.80">
        <route edges="0:1 1:3 3:7"/>
    </vehicle>
    <vehicle id="658" depart="263.20">
        <route edges="8:2 2:0"/>
    </vehicle>
    <vehicle id="659" depart="263.60">
        <route edges="6:5 5:1 1:3 3:7"/>
    </vehicle>
    <vehicle id="660" depart="264.00">
        <route edges="6:5 5:1"/>
    </vehicle>
    <vehicle id="663" depart="265.20">
        <route edges="3:1 1:0 0:2 2:8"/>
    </vehicle>
    <vehicle id="664" depart="265.60">
        <route edges="10:9 9:0 0:2 2:8"/>
    </vehicle>
    <vehicle id="667" depart="266.80">
        <route edges="9:0 0:2"/>
    </vehicle>
    <vehicle id="670" depart="268.00">