<?xml version="1.0" encoding="UTF-8"?>

<!-- generated on Thu Feb 13 14:16:30 2014 by SUMO duarouter Version 0.18.0
<?xml version="1.0" encoding="UTF-8"?>

<configuration xmlns:xsi="http://www.w3.org/2001/XMLSchema-instance" xsi:noNamespaceSchemaLocation="http://sumo.sf.net/xsd/duarouterConfiguration.xsd">

    <input>
        <net-file value="twinT.net.xml"/>
        <trip-files value="experimentos/twinT.p1.0.4.trips.xml"/>
    </input>

    <output>
        <output-file value="experimentos/twinT.p1.0.4.rou.xml"/>
    </output>

    <processing>
        <ignore-errors value="true"/>
    </processing>

    <random_number>
        <random value="true"/>
    </random_number>

</configuration>
-->

<routes xmlns:xsi="http://www.w3.org/2001/XMLSchema-instance" xsi:noNamespaceSchemaLocation="http://sumo.sf.net/xsd/routes_file.xsd">
    <vehicle id="0" depart="0.00">
        <route edges="3:1"/>
    </vehicle>
    <vehicle id="1" depart="1.00">
        <route edges="1:0 0:2"/>
    </vehicle>
    <vehicle id="2" depart="2.00">
        <route edges="8:2 2:0 0:1 1:3 3:7"/>
    </vehicle>
    <vehicle id="7" depart="7.00">
        <route edges="3:1 1:0 0:9 9:10"/>
    </vehicle>
    <vehicle id="8" depart="8.00">
        <route edges="8:2 2:0 0:1 1:3"/>
    </vehicle>
    <vehicle id="11" depart="11.00">
        <route edges="8:2 2:0 0:1 1:3 3:7"/>
    </vehicle>
    <vehicle id="12" depart="12.00">
        <route edges="8:2 2:0 0:9 9:10"/>
    </vehicle>
    <vehicle id="14" depart="14.00">
        <route edges="9:0 0:2 2:8"/>
    </vehicle>
    <vehicle id="16" depart="16.00">
        <route edges="7:3 3:1 1:0 0:2"/>
    </vehicle>
    <vehicle id="18" depart="18.00">
        <route edges="3:1"/>
    </vehicle>
    <vehicle id="19" depart="19.00">
        <route edges="0:2"/>
    </vehicle>
    <vehicle id="20" depart="20.00">
        <route edges="8:2 2:0 0:1 1:3 3:7"/>
    </vehicle>
    <vehicle id="22" depart="22.00">
        <route edges="6:5 5:1 1:3 3:7"/>
    </vehicle>
    <vehicle id="23" depart="23.00">
        <route edges="7:3 3:1 1:0"/>
    </vehicle>
    <vehicle id="24" depart="24.00">
        <route edges="6:5 5:1 1:0 0:2 2:8"/>
    </vehicle>
    <vehicle id="25" depart="25.00">
        <route edges="8:2 2:0 0:1 1:3 3:7"/>
    </vehicle>
    <vehicle id="27" depart="27.00">
        <route edges="8:2 2:0 0:9 9:10"/>
    </vehicle>
    <vehicle id="28" depart="28.00">
        <route edges="3:1"/>
    </vehicle>
    <vehicle id="29" depart="29.00">
        <route edges="7:3 3:1 1:0 0:9 9:10"/>
    </vehicle>
    <vehicle id="31" depart="31.00">
        <route edges="3:1 1:0 0:9 9:10"/>
    </vehicle>
    <vehicle id="33" depart="33.00">
        <route edges="8:2 2:0 0:1 1:3 3:7"/>
    </vehicle>
    <vehicle id="36" depart="36.00">
        <route edges="3:1 1:0 0:2 2:8"/>
    </vehicle>
    <vehicle id="37" depart="37.00">
        <route edges="7:3 3:1 1:0 0:2 2:8"/>
    </vehicle>
    <vehicle id="39" depart="39.00">
        <route edges="2:0"/>
    </vehicle>
    <vehicle id="43" depart="43.00">
        <route edges="10:9 9:0 0:1 1:3 3:7"/>
    </vehicle>
    <vehicle id="46" depart="46.00">
        <route edges="6:5 5:1"/>
    </vehicle>
    <vehicle id="47" depart="47.00">
        <route edges="9:0 0:1 1:3 3:7"/>
    </vehicle>
    <vehicle id="48" depart="48.00">
        <route edges="0:1 1:3 3:7"/>
    </vehicle>
    <vehicle id="52" depart="52.00">
        <route edges="8:2 2:0"/>
    </vehicle>
    <vehicle id="54" depart="54.00">
        <route edges="7:3 3:1 1:5 5:6"/>
    </vehicle>
    <vehicle id="55" depart="55.00">
        <route edges="7:3 3:1 1:0 0:9 9:10"/>
    </vehicle>
    <vehicle id="57" depart="57.00">
        <route edges="6:5 5:1"/>
    </vehicle>
    <vehicle id="59" depart="59.00">
        <route edges="8:2 2:0 0:1 1:5"/>
    </vehicle>
    <vehicle id="62" depart="62.00">
        <route edges="3:1"/>
    </vehicle>
    <vehicle id="66" depart="66.00">
        <route edges="10:9 9:0"/>
    </vehicle>
    <vehicle id="67" depart="67.00">
        <route edges="10:9 9:0 0:1 1:3"/>
    </vehicle>
    <vehicle id="68" depart="68.00">
        <route edges="0:1 1:5 5:6"/>
    </vehicle>
    <vehicle id="70" depart="70.00">
        <route edges="2:0 0:1 1:5"/>
    </vehicle>
    <vehicle id="71" depart="71.00">
        <route edges="8:2 2:0 0:1 1:5"/>
    </vehicle>
    <vehicle id="73" depart="73.00">
        <route edges="9:0 0:1 1:3"/>
    </vehicle>
    <vehicle id="76" depart="76.00">
        <route edges="6:5 5:1 1:0"/>
    </vehicle>
    <vehicle id="77" depart="77.00">
        <route edges="1:0 0:9 9:10"/>
    </vehicle>
    <vehicle id="78" depart="78.00">
        <route edges="10:9 9:0 0:2 2:8"/>
    </vehicle>
    <vehicle id="79" depart="79.00">
        <route edges="7:3 3:1 1:0 0:2 2:8"/>
    </vehicle>
    <vehicle id="84" depart="84.00">
        <route edges="3:1"/>
    </vehicle>
    <vehicle id="85" depart="85.00">
        <route edges="1:5 5:6"/>
    </vehicle>
    <vehicle id="87" depart="87.00">
        <route edges="5:1 1:0 0:2"/>
    </vehicle>
    <vehicle id="88" depart="88.00">
        <route edges="10:9 9:0 0:2 2:8"/>
    </vehicle>
    <vehicle id="89" depart="89.00">
        <route edges="2:0 0:1 1:3 3:7"/>
    </vehicle>
    <vehicle id="90" depart="90.00">
        <route edges="10:9 9:0 0:1 1:3"/>
    </vehicle>
    <vehicle id="92" depart="92.00">
        <route edges="0:1 1:3"/>
    </vehicle>
    <vehicle id="94" depart="94.00">
        <route edges="7:3 3:1 1:0"/>
    </vehicle>
    <vehicle id="95" depart="95.00">
        <route edges="9:0 0:2 2:8"/>
    </vehicle>
    <vehicle id="96" depart="96.00">
        <route edges="10:9 9:0 0:1 1:5 5:6"/>
    </vehicle>
    <vehicle id="97" depart="97.00">
        <route edges="2:0 0:1 1:3 3:7"/>
    </vehicle>
    <vehicle id="99" depart="99.00">
        <route edges="6:5 5:1 1:3"/>
    </vehicle>
    <vehicle id="101" depart="101.00">
        <route edges="1:0 0:2 2:8"/>
    </vehicle>
    <vehicle id="108" depart="108.00">
        <route edges="8:2 2:0 0:1 1:3 3:7"/>
    </vehicle>
    <vehicle id="110" depart="110.00">
        <route edges="7:3 3:1 1:0 0:9 9:10"/>
    </vehicle>
    <vehicle id="111" depart="111.00">
        <route edges="7:3 3:1 1:0 0:9 9:10"/>
    </vehicle>
    <vehicle id="115" depart="115.00">
        <route edges="10:9 9:0 0:2 2:8"/>
    </vehicle>
    <vehicle id="117" depart="117.00">
        <route edges="10:9 9:0 0:2 2:8"/>
    </vehicle>
    <vehicle id="118" depart="118.00">
        <route edges="1:0 0:9 9:10"/>
    </vehicle>
    <vehicle id="119" depart="119.00">
        <route edges="8:2 2:0 0:9 9:10"/>
    </vehicle>
    <vehicle id="120" depart="120.00">
        <route edges="5:1 1:3"/>
    </vehicle>
    <vehicle id="121" depart="121.00">
        <route edges="8:2 2:0 0:1 1:3"/>
    </vehicle>
    <vehicle id="123" depart="123.00">
        <route edges="2:0 0:1 1:3 3:7"/>
    </vehicle>
    <vehicle id="125" depart="125.00">
        <route edges="6:5 5:1 1:0 0:2 2:8"/>
    </vehicle>
    <vehicle id="126" depart="126.00">
        <route edges="6:5 5:1 1:3"/>
    </vehicle>
    <vehicle id="127" depart="127.00">
        <route edges="3:1 1:0 0:2 2:8"/>
    </vehicle>
    <vehicle id="128" depart="128.00">
        <route edges="3:1 1:0 0:2"/>
    </vehicle>
    <vehicle id="131" depart="131.00">
        <route edges="0:1 1:5 5:6"/>
    </vehicle>
    <vehicle id="132" depart="132.00">
        <route edges="8:2 2:0 0:1 1:5 5:6"/>
    </vehicle>
    <vehicle id="134" depart="134.00">
        <route edges="8:2 2:0 0:1 1:3 3:7"/>
    </vehicle>
    <vehicle id="135" depart="135.00">
        <route edges="7:3 3:1 1:0 0:2 2:8"/>
    </vehicle>
    <vehicle id="136" depart="136.00">
        <route edges="1:3 3:7"/>
    </vehicle>
    <vehicle id="138" depart="138.00">
        <route edges="10:9 9:0 0:1 1:5"/>
    </vehicle>
    <vehicle id="140" depart="140.00">
        <route edges="3:1 1:5 5:6"/>
    </vehicle>
    <vehicle id="141" depart="141.00">
        <route edges="5:1 1:3 3:7"/>
    </vehicle>
    <vehicle id="143" depart="143.00">
        <route edges="7:3 3:1 1:0 0:2 2:8"/>
    </vehicle>
    <vehicle id="146" depart="146.00">
        <route edges="9:0 0:1 1:3"/>
    </vehicle>
    <vehicle id="147" depart="147.00">
        <route edges="5:1 1:3 3:7"/>
    </vehicle>
    <vehicle id="148" depart="148.00">
        <route edges="8:2 2:0 0:1 1:5 5:6"/>
    </vehicle>
    <vehicle id="149" depart="149.00">
        <route edges="2:0"/>
    </vehicle>
    <vehicle id="156" depart="156.00">
        <route edges="9:0 0:2 2:8"/>
    </vehicle>
    <vehicle id="158" depart="158.00">
        <route edges="3:1"/>
    </vehicle>
    <vehicle id="166" depart="166.00">
        <route edges="7:3 3:1"/>
    </vehicle>
    <vehicle id="168" depart="168.00">
        <route edges="10:9 9:0 0:1 1:5 5:6"/>
    </vehicle>
    <vehicle id="171" depart="171.00">
        <route edges="8:2 2:0 0:1 1:3 3:7"/>
    </vehicle>
    <vehicle id="173" depart="173.00">
        <route edges="2:0 0:1 1:3 3:7"/>
    </vehicle>
    <vehicle id="174" depart="174.00">
        <route edges="8:2 2:0 0:1 1:3 3:7"/>
    </vehicle>
    <vehicle id="175" depart="175.00">
        <route edges="1:3 3:7"/>
    </vehicle>
    <vehicle id="177" depart="177.00">
        <route edges="8:2 2:0 0:1 1:3"/>
    </vehicle>
    <vehicle id="180" depart="180.00">
        <route edges="10:9 9:0"/>
    </vehicle>
    <vehicle id="182" depart="182.00">
        <route edges="9:0 0:1 1:5 5:6"/>
    </vehicle>
    <vehicle id="186" depart="186.00">
        <route edges="2:0 0:9 9:10"/>
    </vehicle>
    <vehicle id="190" depart="190.00">
        <route edges="2:0 0:1 1:3"/>
    </vehicle>
    <vehicle id="191" depart="191.00">
        <route edges="1:5"/>
    </vehicle>
    <vehicle id="197" depart="197.00">
        <route edges="3:1 1:5 5:6"/>
    </vehicle>
    <vehicle id="198" depart="198.00">
        <route edges="8:2 2:0 0:1 1:3 3:7"/>
    </vehicle>
    <vehicle id="199" depart="199.00">
        <route edges="7:3 3:1 1:0 0:2 2:8"/>
    </vehicle>
    <vehicle id="202" depart="202.00">
        <route edges="8:2 2:0 0:1"/>
    </vehicle>
    <vehicle id="205" depart="205.00">
        <route edges="7:3 3:1"/>
    </vehicle>
    <vehicle id="207" depart="207.00">
        <route edges="10:9 9:0 0:1 1:5 5:6"/>
    </vehicle>
    <vehicle id="208" depart="208.00">
        <route edges="0:2 2:8"/>
    </vehicle>
    <vehicle id="211" depart="211.00">
        <route edges="7:3 3:1 1:0 0:2 2:8"/>
    </vehicle>
    <vehicle id="220" depart="220.00">
        <route edges="10:9 9:0"/>
    </vehicle>
    <vehicle id="222" depart="222.00">
        <route edges="2:0 0:1 1:5 5:6"/>
    </vehicle>
    <vehicle id="225" depart="225.00">
        <route edges="3:1 1:0 0:2 2:8"/>
    </vehicle>
    <vehicle id="226" depart="226.00">
        <route edges="6:5 5:1 1:0 0:2"/>
    </vehicle>
    <vehicle id="229" depart="229.00">
        <route edges="7:3 3:1 1:5 5:6"/>
    </vehicle>
    <vehicle id="232" depart="232.00">
        <route edges="6:5 5:1 1:0 0:2 2:8"/>
    </vehicle>
    <vehicle id="235" depart="235.00">
        <route edges="2:0 0:1 1:5 5:6"/>
    </vehicle>
    <vehicle id="238" depart="238.00">
        <route edges="2:0 0:9 9:10"/>
    </vehicle>
    <vehicle id="240" depart="240.00">
        <route edges="10:9 9:0 0:2 2:8"/>
    </vehicle>
    <vehicle id="245" depart="245.00">
        <route edges="10:9 9:0 0:1 1:3 3:7"/>
    </vehicle>
    <vehicle id="247" depart="247.00">
        <route edges="8:2 2:0 0:1 1:3"/>
    </vehicle>
    <vehicle id="248" depart="248.00">
        <route edges="7:3 3:1 1:5 5:6"/>
    </vehicle>
    <vehicle id="249" depart="249.00">
        <route edges="10:9 9:0 0:1 1:3"/>
    </vehicle>
    <vehicle id="250" depart="250.00">
        <route edges="9:0 0:1 1:5"/>
    </vehicle>
    <vehicle id="253" depart="253.00">
        <route edges="7:3 3:1 1:0 0:2 2:8"/>
    </vehicle>
    <vehicle id="254" depart="254.00">
        <route edges="10:9 9:0 0:2 2:8"/>
    </vehicle>
    <vehicle id="256" depart="256.00">
        <route edges="10:9 9:0 0:1 1:3"/>
    </vehicle>
    <vehicle id="259" depart="259.00">
        <route edges="1:0 0:9 9:10"/>
    </vehicle>
    <vehicle id="260" depart="260.00">
        <route edges="6:5 5:1 1:0 0:2"/>
    </vehicle>
    <vehicle id="262" depart="262.00">
        <route edges="1:3 3:7"/>
    </vehicle>
    <vehicle id="263" depart="263.00">
        <route edges="0:9 9:10"/>
    </vehicle>
    <vehicle id="264" depart="264.00">
        <route edges="9:0 0:1 1:5"/>
    </vehicle>
    <vehicle id="266" depart="266.00">
        <route edges="10:9 9:0 0:2 2:8"/>
    </vehicle>
    <vehicle id="268" depart="268.00">
        <route edges="6:5 5:1 1:0 0:2 2:8"/>
    </vehicle>
    <vehicle id="271" depart="271.00">
        <route edges="8:2 2:0 0:9 9:10"/>
    </vehicle>
    <vehicle id="272" depart="272.00">
        <route edges="8:2 2:0 0:1 1:5"/>
    </vehicle>
    <vehicle id="273" depart="273.00">
        <route edges="8:2 2:0 0:1 1:3 3:7"/>
    </vehicle>
    <vehicle id="274" depart="274.00">
        <route edges="8:2 2:0 0:1 1:5"/>
    </vehicle>
    <vehicle id="275" depart="275.00">
        <route edges="7:3 3:1 1:5 5:6"/>
    </vehicle>
    <vehicle id="276" depart="276.00">
        <route edges="0:2 2:8"/>
    </vehicle>
    <vehicle id="277" depart="277.00">
        <route edges="5:1 1:3 3:7"/>
    </vehicle>
    <vehicle id="278" depart="278.00">
        <route edges="8:2 2:0 0:1 1:5 5:6"/>
    </vehicle>
    <vehicle id="282" depart="282.00">
        <route edges="0:1 1:3 3:7"/>
    </vehicle>
    <vehicle id="284" depart="284.00">
        <route edges="6:5 5:1 1:0 0:2"/>
    </vehicle>
    <vehicle id="286" depart="286.00">
        <route edges="7:3 3:1"/>
    </vehicle>
    <vehicle id="287" depart="287.00">
        <route edges="8:2 2:0 0:1 1:5"/>
    </vehicle>
    <vehicle id="289" depart="289.00">
        <route edges="7:3 3:1 1:0"/>
    </vehicle>
    <vehicle id="290" depart="290.00">
        <route edges="10:9 9:0 0:1 1:3"/>
    </vehicle>
    <vehicle id="291" depart="291.00">
        <route edges="6:5 5:1 1:0 0:2 2:8"/>
    </vehicle>
    <vehicle id="292" depart="292.00">
        <route edges="1:3 3:7"/>
    </vehicle>
    <vehicle id="293" depart="293.00">
        <route edges="8:2 2:0 0:1 1:3 3:7"/>
    </vehicle>
    <vehicle id="297" depart="297.00">
        <route edges="8:2 2:0 0:1 1:3 3:7"/>
    </vehicle>
    <vehicle id="300" depart="300.00">
        <route edges="1:0 0:2 2:8"/>
    </vehicle>
    <vehicle id="303" depart="303.00">
        <route edges="3:1 1:0 0:9"/>
    </vehicle>
    <vehicle id="304" depart="304.00">
        <route edges="3:1 1:0 0:2 2:8"/>
    </vehicle>
    <vehicle id="305" depart="305.00">
        <route edges="9:0 0:1 1:3 3:7"/>
    </vehicle>
    <vehicle id="308" depart="308.00">
        <route edges="7:3 3:1"/>
    </vehicle>
    <vehicle id="309" depart="309.00">
        <route edges="5:1 1:3"/>
    </vehicle>
    <vehicle id="311" depart="311.00">
        <route edges="7:3 3:1"/>
    </vehicle>
    <vehicle id="313" depart="313.00">
        <route edges="5:1 1:0 0:9"/>
    </vehicle>
    <vehicle id="315" depart="315.00">
        <route edges="10:9 9:0 0:2"/>
    </vehicle>
    <vehicle id="317" depart="317.00">
        <route edges="7:3 3:1"/>
    </vehicle>
    <vehicle id="319" depart="319.00">
        <route edges="8:2 2:0 0:1"/>
    </vehicle>
    <vehicle id="320" depart="320.00">
        <route edges="8:2 2:0 0:1 1:5 5:6"/>
    </vehicle>
    <vehicle id="321" depart="321.00">
        <route edges="8:2 2:0 0:9 9:10"/>
    </vehicle>
    <vehicle id="326" depart="326.00">
        <route edges="0:1 1:3"/>
    </vehicle>
    <vehicle id="327" depart="327.00">
        <route edges="10:9 9:0 0:2"/>
    </vehicle>
    <vehicle id="329" depart="329.00">
        <route edges="2:0 0:1 1:5 5:6"/>
    </vehicle>
    <vehicle id="330" depart="330.00">
        <route edges="7:3 3:1 1:0"/>
    </vehicle>
    <vehicle id="331" depart="331.00">
        <route edges="7:3 3:1 1:0 0:2 2:8"/>
    </vehicle>
    <vehicle id="333" depart="333.00">
        <route edges="6:5 5:1 1:0 0:2 2:8"/>
    </vehicle>
    <vehicle id="334" depart="334.00">
        <route edges="10:9 9:0 0:2 2:8"/>
    </vehicle>
    <vehicle id="336" depart="336.00">
        <route edges="7:3 3:1 1:0 0:2 2:8"/>
    </vehicle>
    <vehicle id="341" depart="341.00">
        <route edges="8:2 2:0 0:1 1:5"/>
    </vehicle>
    <vehicle id="342" depart="342.00">
        <route edges="2:0"/>
    </vehicle>
    <vehicle id="346" depart="346.00">
        <route edges="7:3 3:1 1:0 0:2"/>
    </vehicle>
    <vehicle id="347" depart="347.00">
        <route edges="9:0 0:1"/>
    </vehicle>
    <vehicle id="348" depart="348.00">
        <route edges="0:1 1:3"/>
    </vehicle>
    <vehicle id="350" depart="350.00">
        <route edges="9:0 0:1 1:3 3:7"/>
    </vehicle>
    <vehicle id="354" depart="354.00">
        <route edges="1:3 3:7"/>
    </vehicle>
    <vehicle id="355" depart="355.00">
        <route edges="2:0 0:1 1:5 5:6"/>
    </vehicle>
    <vehicle id="359" depart="359.00">
        <route edges="7:3 3:1"/>
    </vehicle>
    <vehicle id="361" depart="361.00">
        <route edges="3:1 1:0 0:9 9:10"/>
    </vehicle>
    <vehicle id="362" depart="362.00">
        <route edges="9:0 0:1 1:3"/>
    </vehicle>
    <vehicle id="364" depart="364.00">
        <route edges="8:2 2:0 0:1 1:3 3:7"/>
    </vehicle>
    <vehicle id="366" depart="366.00">
        <route edges="0:2"/>
    </vehicle>
    <vehicle id="367" depart="367.00">
        <route edges="6:5 5:1 1:0 0:2"/>
    </vehicle>
    <vehicle id="373" depart="373.00">
        <route edges="6:5 5:1 1:0 0:2 2:8"/>
    </vehicle>
    <vehicle id="374" depart="374.00">
        <route edges="8:2 2:0 0:9 9:10"/>
    </vehicle>
    <vehicle id="377" depart="377.00">
        <route edges="3:1 1:0 0:2 2:8"/>
    </vehicle>
    <vehicle id="378" depart="378.00">
        <route edges="0:1 1:3 3:7"/>
    </vehicle>
    <vehicle id="379" depart="379.00">
        <route edges="8:2 2:0 0:9 9:10"/>
    </vehicle>
    <vehicle id="380" depart="380.00">
        <route edges="6:5 5:1 1:0 0:2 2:8"/>
    </vehicle>
    <vehicle id="383" depart="383.00">
        <route edges="7:3 3:1 1:0 0:2 2:8"/>
    </vehicle>
    <vehicle id="384" depart="384.00">
        <route edges="5:1 1:3 3:7"/>
    </vehicle>
    <vehicle id="386" depart="386.00">
        <route edges="3:1 1:0 0:9 9:10"/>
    </vehicle>
    <vehicle id="387" depart="387.00">
        <route edges="7:3 3:1 1:0 0:2"/>
    </vehicle>
    <vehicle id="388" depart="388.00">
        <route edges="8:2 2:0 0:9 9:10"/>
    </vehicle>
    <vehicle id="394" depart="394.00">
        <route edges="0:2 2:8"/>
    </vehicle>
    <vehicle id="395" depart="395.00">
        <route edges="0:2"/>
    </vehicle>
    <vehicle id="396" depart="396.00">
        <route edges="3:1 1:5"/>
    </vehicle>
    <vehicle id="401" depart="401.00">
        <route edges="7:3 3:1 1:0 0:9"/>
    </vehicle>
    <vehicle id="402" depart="402.00">
        <route edges="10:9 9:0 0:1 1:3"/>
    </vehicle>
    <vehicle id="404" depart="404.00">
        <route edges="8:2 2:0 0:1 1:3"/>
    </vehicle>
    <vehicle id="405" depart="405.00">
        <route edges="1:0 0:9 9:10"/>
    </vehicle>
    <vehicle id="408" depart="408.00">
        <route edges="6:5 5:1 1:0"/>
    </vehicle>
    <vehicle id="409" depart="409.00">
        <route edges="3:1 1:0 0:2 2:8"/>
    </vehicle>
    <vehicle id="412" depart="412.00">
        <route edges="8:2 2:0 0:1 1:5 5:6"/>
    </vehicle>
    <vehicle id="416" depart="416.00">
        <route edges="6:5 5:1 1:0"/>
    </vehicle>
    <vehicle id="423" depart="423.00">
        <route edges="1:0 0:2 2:8"/>
    </vehicle>
    <vehicle id="425" depart="425.00">
        <route edges="8:2 2:0 0:9"/>
    </vehicle>
    <vehicle id="431" depart="431.00">
        <route edges="5:1 1:3"/>
    </vehicle>
    <vehicle id="434" depart="434.00">
        <route edges="8:2 2:0 0:1 1:3 3:7"/>
    </vehicle>
    <vehicle id="438" depart="438.00">
        <route edges="10:9 9:0 0:1 1:5 5:6"/>
    </vehicle>
    <vehicle id="440" depart="440.00">
        <route edges="0:2 2:8"/>
    </vehicle>
    <vehicle id="442" depart="442.00">
        <route edges="7:3 3:1 1:5"/>
    </vehicle>
    <vehicle id="445" depart="445.00">
        <route edges="6:5 5:1 1:3 3:7"/>
    </vehicle>
    <vehicle id="447" depart="447.00">
        <route edges="7:3 3:1 1:0 0:9 9:10"/>
    </vehicle>
    <vehicle id="449" depart="449.00">
        <route edges="8:2 2:0 0:9 9:10"/>
    </vehicle>
    <vehicle id="451" depart="451.00">
        <route edges="7:3 3:1"/>
    </vehicle>
    <vehicle id="452" depart="452.00">
        <route edges="7:3 3:1 1:0 0:9 9:10"/>
    </vehicle>
    <vehicle id="453" depart="453.00">
        <route edges="8:2 2:0 0:1 1:3"/>
    </vehicle>
    <vehicle id="455" depart="455.00">
        <route edges="7:3 3:1 1:0 0:2 2:8"/>
    </vehicle>
    <vehicle id="459" depart="459.00">
        <route edges="3:1 1:0 0:2 2:8"/>
    </vehicle>
    <vehicle id="461" depart="461.00">
        <route edges="7:3 3:1 1:0 0:2 2:8"/>
    </vehicle>
    <vehicle id="462" depart="462.00">
        <route edges="7:3 3:1 1:5 5:6"/>
    </vehicle>
    <vehicle id="464" depart="464.00">
        <route edges="0:1 1:3 3:7"/>
    </vehicle>
    <vehicle id="466" depart="466.00">
        <route edges="2:0 0:1 1:3"/>
    </vehicle>
    <vehicle id="469" depart="469.00">
        <route edges="10:9 9:0 0:1 1:3"/>
    </vehicle>
    <vehicle id="470" depart="470.00">
        <route edges="8:2 2:0 0:1 1:3 3:7"/>
    </vehicle>
    <vehicle id="471" depart="471.00">
        <route edges="3:1 1:0 0:9"/>
    </vehicle>
    <vehicle id="472" depart="472.00">
        <route edges="10:9 9:0 0:1 1:5 5:6"/>
    </vehicle>
    <vehicle id="474" depart="474.00">
        <route edges="8:2 2:0 0:1 1:5 5:6"/>
    </vehicle>
    <vehicle id="476" depart="476.00">
        <route edges="7:3 3:1 1:0 0:9 9:10"/>
    </vehicle>
    <vehicle id="478" depart="478.00">
        <route edges="5:1 1:3"/>
    </vehicle>
    <vehicle id="479" depart="479.00">
        <route edges="1:3 3:7"/>
    </vehicle>
    <vehicle id="484" depart="484.00">
        <route edges="7:3 3:1 1:5"/>
    </vehicle>
    <vehicle id="485" depart="485.00">
        <route edges="2:0 0:1 1:3 3:7"/>
    </vehicle>
    <vehicle id="487" depart="487.00">
        <route edges="8:2 2:0 0:1 1:3 3:7"/>
    </vehicle>
    <vehicle id="488" depart="488.00">
        <route edges="8:2 2:0 0:1"/>
    </vehicle>
    <vehicle id="489" depart="489.00">
        <route edges="0:2"/>
    </vehicle>
    <vehicle id="491" depart="491.00">
        <route edges="2:0 0:1"/>
    </vehicle>
    <vehicle id="495" depart="495.00">
        <route edges="5:1 1:0 0:2"/>
    </vehicle>
    <vehicle id="497" depart="497.00">
        <route edges="6:5 5:1 1:0 0:9"/>
    </vehicle>
    <vehicle id="499" depart="499.00">
        <route edges="6:5 5:1 1:0 0:9"/>
    </vehicle>
    <vehicle id="500" depart="500.00">
        <route edges="8:2 2:0 0:1 1:3 3:7"/>
    </vehicle>
    <vehicle id="501" depart="501.00">
        <route edges="7:3 3:1 1:0 0:2 2:8"/>
    </vehicle>
    <vehicle id="502" depart="502.00">
        <route edges="3:1"/>
    </vehicle>
    <vehicle id="504" depart="504.00">
        <route edges="6:5 5:1"/>
    </vehicle>
    <vehicle id="505" depart="505.00">
        <route edges="2:0 0:1 1:3 3:7"/>
    </vehicle>
    <vehicle id="507" depart="507.00">
        <route edges="5:1 1:0 0:9"/>
    </vehicle>
    <vehicle id="508" depart="508.00">
        <route edges="9:0 0:2"/>
    </vehicle>
    <vehicle id="512" depart="512.00">
        <route edges="6:5 5:1 1:3 3:7"/>
    </vehicle>
    <vehicle id="514" depart="514.00">
        <route edges="1:0 0:2 2:8"/>
    </vehicle>
    <vehicle id="515" depart="515.00">
        <route edges="2:0 0:9 9:10"/>
    </vehicle>
    <vehicle id="517" depart="517.00">
        <route edges="7:3 3:1"/>
    </vehicle>
    <vehicle id="518" depart="518.00">
        <route edges="10:9 9:0 0:1 1:3 3:7"/>
    </vehicle>
    <vehicle id="519" depart="519.00">
        <route edges="7:3 3:1 1:0 0:2"/>
    </vehicle>
    <vehicle id="522" depart="522.00">
        <route edges="9:0 0:2 2:8"/>
    </vehicle>
    <vehicle id="523" depart="523.00">
        <route edges="2:0 0:1 1:5"/>
    </vehicle>
    <vehicle id="524" depart="524.00">
        <route edges="0:2 2:8"/>
    </vehicle>
    <vehicle id="525" depart="525.00">
        <route edges="6:5 5:1 1:0 0:2 2:8"/>
    </vehicle>
    <vehicle id="527" depart="527.00">
        <route edges="10:9 9:0 0:2"/>
    </vehicle>
    <vehicle id="528" depart="528.00">
        <route edges="5:1 1:3 3:7"/>
    </vehicle>
    <vehicle id="532" depart="532.00">
        <route edges="2:0 0:1 1:3 3:7"/>
    </vehicle>
    <vehicle id="534" depart="534.00">
        <route edges="3:1 1:0 0:2 2:8"/>
    </vehicle>
    <vehicle id="535" depart="535.00">
        <route edges="1:3 3:7"/>
    </vehicle>
    <vehicle id="536" depart="536.00">
        <route edges="3:1 1:0 0:2 2:8"/>
    </vehicle>
    <vehicle id="541" depart="541.00">
        <route edges="7:3 3:1 1:0 0:9 9:10"/>
    </vehicle>
    <vehicle id="542" depart="542.00">
        <route edges="7:3 3:1 1:5 5:6"/>
    </vehicle>
    <vehicle id="543" depart="543.00">
        <route edges="7:3 3:1 1:0 0:2 2:8"/>
    </vehicle>
    <vehicle id="544" depart="544.00">
        <route edges="2:0 0:1 1:3 3:7"/>
    </vehicle>
    <vehicle id="545" depart="545.00">
        <route edges="7:3 3:1 1:5"/>
    </vehicle>
    <vehicle id="548" depart="548.00">
        <route edges="3:1 1:0"/>
    </vehicle>
    <vehicle id="549" depart="549.00">
        <route edges="8:2 2:0 0:1"/>
    </vehicle>
    <vehicle id="550" depart="550.00">
        <route edges="7:3 3:1 1:0 0:2 2:8"/>
    </vehicle>
    <vehicle id="551" depart="551.00">
        <route edges="8:2 2:0"/>
    </vehicle>
    <vehicle id="553" depart="553.00">
        <route edges="7:3 3:1"/>
    </vehicle>
    <vehicle id="554" depart="554.00">
        <route edges="8:2 2:0"/>
    </vehicle>
    <vehicle id="556" depart="556.00">
        <route edges="10:9 9:0 0:1 1:5 5:6"/>
    </vehicle>
    <vehicle id="559" depart="559.00">
        <route edges="1:3 3:7"/>
    </vehicle>
    <vehicle id="563" depart="563.00">
        <route edges="6:5 5:1 1:0 0:2 2:8"/>
    </vehicle>
    <vehicle id="565" depart="565.00">
        <route edges="0:1 1:3 3:7"/>
    </vehicle>
    <vehicle id="567" depart="567.00">
        <route edges="0:1"/>
    </vehicle>
    <vehicle id="569" depart="569.00">
        <route edges="0:2 2:8"/>
    </vehicle>
    <vehicle id="574" depart="574.00">
        <route edges="1:0 0:2"/>
    </vehicle>
    <vehicle id="576" depart="576.00">
        <route edges="9:0 0:2 2:8"/>
    </vehicle>
    <vehicle id="577" depart="577.00">
        <route edges="1:3 3:7"/>
    </vehicle>
    <vehicle id="579" depart="579.00">
        <route edges="7:3 3:1 1:0 0:2 2:8"/>
    </vehicle>
    <vehicle id="580" depart="580.00">
        <route edges="8:2 2:0 0:1 1:3 3:7"/>
    </vehicle>
    <vehicle id="581" depart="581.00">
        <route edges="0:2 2:8"/>
    </vehicle>
    <vehicle id="582" depart="582.00">
        <route edges="8:2 2:0 0:1 1:3"/>
    </vehicle>
    <vehicle id="583" depart="583.00">
        <route edges="7:3 3:1 1:0 0:2 2:8"/>
    </vehicle>
    <vehicle id="584" depart="584.00">
        <route edges="8:2 2:0 0:1 1:3 3:7"/>
    </vehicle>
    <vehicle id="585" depart="585.00">
        <route edges="8:2 2:0 0:1 1:3 3:7"/>
    </vehicle>
    <vehicle id="586" depart="586.00">
        <route edges="7:3 3:1 1:5 5:6"/>
    </vehicle>
    <vehicle id="588" depart="588.00">
        <route edges="9:0 0:1 1:3 3:7"/>
    </vehicle>
    <vehicle id="589" depart="589.00">
        <route edges="10:9 9:0 0:1 1:3 3:7"/>
    </vehicle>
    <vehicle id="590" depart="590.00">
        <route edges="8:2 2:0 0:1 1:3 3:7"/>
    </vehicle>
    <vehicle id="591" depart="591.00">
        <route edges="0:2"/>
    </vehicle>
    <vehicle id="592" depart="592.00">
        <route edges="7:3 3:1 1:5 5:6"/>
    </vehicle>
    <vehicle id="594" depart="594.00">
        <route edges="8:2 2:0 0:1 1:3 3:7"/>
    </vehicle>
    <vehicle id="595" depart="595.00">
        <route edges="1:3 3:7"/>
    </vehicle>
    <vehicle id="597" depart="597.00">
        <route edges="9:0 0:2 2:8"/>
    </vehicle>
    <vehicle id="601" depart="601.00">
        <route edges="7:3 3:1 1:0 0:2 2:8"/>
    </vehicle>
    <vehicle id="604" depart="604.00">
        <route edges="8:2 2:0 0:9 9:10"/>
    </vehicle>
    <vehicle id="605" depart="605.00">
        <route edges="1:3 3:7"/>
    </vehicle>
    <vehicle id="606" depart="606.00">
        <route edges="7:3 3:1"/>
    </vehicle>
    <vehicle id="608" depart="608.00">
        <route edges="6:5 5:1 1:0"/>
    </vehicle>
    <vehicle id="613" depart="613.00">
        <route edges="7:3 3:1 1:0"/>
    </vehicle>
    <vehicle id="617" depart="617.00">
        <route edges="7:3 3:1"/>
    </vehicle>
    <vehicle id="618" depart="618.00">
        <route edges="7:3 3:1"/>
    </vehicle>
    <vehicle id="619" depart="619.00">
        <route edges="10:9 9:0 0:2 2:8"/>
    </vehicle>
    <vehicle id="622" depart="622.00">
        <route edges="7:3 3:1 1:0 0:2 2:8"/>
    </vehicle>
    <vehicle id="623" depart="623.00">
        <route edges="9:0 0:2"/>
    </vehicle>
    <vehicle id="626" depart="626.00">
        <route edges="8:2 2:0 0:1 1:5 5:6"/>
    </vehicle>
    <vehicle id="628" depart="628.00">
        <route edges="5:1 1:0"/>
    </vehicle>
    <vehicle id="629" depart="629.00">
        <route edges="1:3 3:7"/>
    </vehicle>