<?xml version="1.0" encoding="UTF-8"?>

<!-- generated on Thu Feb 13 14:15:47 2014 by SUMO duarouter Version 0.18.0
<?xml version="1.0" encoding="UTF-8"?>

<configuration xmlns:xsi="http://www.w3.org/2001/XMLSchema-instance" xsi:noNamespaceSchemaLocation="http://sumo.sf.net/xsd/duarouterConfiguration.xsd">

    <input>
        <net-file value="twinT.net.xml"/>
        <trip-files value="experimentos/twinT.p0.4.6.trips.xml"/>
    </input>

    <output>
        <output-file value="experimentos/twinT.p0.4.6.rou.xml"/>
    </output>

    <processing>
        <ignore-errors value="true"/>
    </processing>

    <random_number>
        <random value="true"/>
    </random_number>

</configuration>
-->

<routes xmlns:xsi="http://www.w3.org/2001/XMLSchema-instance" xsi:noNamespaceSchemaLocation="http://sumo.sf.net/xsd/routes_file.xsd">
    <vehicle id="1" depart="0.40">
        <route edges="7:3 3:1"/>
    </vehicle>
    <vehicle id="4" depart="1.60">
        <route edges="6:5 5:1 1:0 0:2 2:8"/>
    </vehicle>
    <vehicle id="8" depart="3.20">
        <route edges="1:0 0:2 2:8"/>
    </vehicle>
    <vehicle id="9" depart="3.60">
        <route edges="9:0 0:2 2:8"/>
    </vehicle>
    <vehicle id="12" depart="4.80">
        <route edges="1:0"/>
    </vehicle>
    <vehicle id="14" depart="5.60">
        <route edges="2:0 0:1 1:5 5:6"/>
    </vehicle>
    <vehicle id="17" depart="6.80">
        <route edges="1:0 0:2"/>
    </vehicle>
    <vehicle id="19" depart="7.60">
        <route edges="0:2 2:8"/>
    </vehicle>
    <vehicle id="21" depart="8.40">
        <route edges="7:3 3:1 1:0 0:9"/>
    </vehicle>
    <vehicle id="22" depart="8.80">
        <route edges="8:2 2:0 0:1 1:5"/>
    </vehicle>
    <vehicle id="23" depart="9.20">
        <route edges="9:0"/>
    </vehicle>
    <vehicle id="24" depart="9.60">
        <route edges="0:2"/>
    </vehicle>
    <vehicle id="27" depart="10.80">
        <route edges="8:2 2:0 0:1 1:3 3:7"/>
    </vehicle>
    <vehicle id="28" depart="11.20">
        <route edges="7:3 3:1 1:0 0:2 2:8"/>
    </vehicle>
    <vehicle id="30" depart="12.00">
        <route edges="8:2 2:0 0:1 1:5 5:6"/>
    </vehicle>
    <vehicle id="35" depart="14.00">
        <route edges="7:3 3:1 1:0 0:2 2:8"/>
    </vehicle>
    <vehicle id="39" depart="15.60">
        <route edges="10:9 9:0 0:2 2:8"/>
    </vehicle>
    <vehicle id="40" depart="16.00">
        <route edges="6:5 5:1 1:3 3:7"/>
    </vehicle>
    <vehicle id="41" depart="16.40">
        <route edges="8:2 2:0 0:1 1:3 3:7"/>
    </vehicle>
    <vehicle id="46" depart="18.40">
        <route edges="7:3 3:1"/>
    </vehicle>
    <vehicle id="51" depart="20.40">
        <route edges="6:5 5:1 1:3"/>
    </vehicle>
    <vehicle id="52" depart="20.80">
        <route edges="6:5 5:1"/>
    </vehicle>
    <vehicle id="53" depart="21.20">
        <route edges="5:1"/>
    </vehicle>
    <vehicle id="54" depart="21.60">
        <route edges="5:1 1:3"/>
    </vehicle>
    <vehicle id="55" depart="22.00">
        <route edges="3:1 1:0 0:2 2:8"/>
    </vehicle>
    <vehicle id="60" depart="24.00">
        <route edges="0:9 9:10"/>
    </vehicle>
    <vehicle id="61" depart="24.40">
        <route edges="1:0 0:2 2:8"/>
    </vehicle>
    <vehicle id="63" depart="25.20">
        <route edges="8:2 2:0 0:1 1:3"/>
    </vehicle>
    <vehicle id="66" depart="26.40">
        <route edges="10:9 9:0 0:1 1:3"/>
    </vehicle>
    <vehicle id="68" depart="27.20">
        <route edges="7:3 3:1 1:0 0:9"/>
    </vehicle>
    <vehicle id="70" depart="28.00">
        <route edges="2:0 0:1 1:5"/>
    </vehicle>
    <vehicle id="74" depart="29.60">
        <route edges="1:3 3:7"/>
    </vehicle>
    <vehicle id="78" depart="31.20">
        <route edges="3:1 1:0 0:9 9:10"/>
    </vehicle>
    <vehicle id="81" depart="32.40">
        <route edges="7:3 3:1 1:0 0:2"/>
    </vehicle>
    <vehicle id="82" depart="32.80">
        <route edges="3:1 1:5 5:6"/>
    </vehicle>
    <vehicle id="83" depart="33.20">
        <route edges="7:3 3:1"/>
    </vehicle>
    <vehicle id="84" depart="33.60">
        <route edges="3:1"/>
    </vehicle>
    <vehicle id="88" depart="35.20">
        <route edges="7:3 3:1 1:0 0:9"/>
    </vehicle>
    <vehicle id="95" depart="38.00">
        <route edges="8:2 2:0 0:1 1:5"/>
    </vehicle>
    <vehicle id="96" depart="38.40">
        <route edges="1:0 0:2 2:8"/>
    </vehicle>
    <vehicle id="98" depart="39.20">
        <route edges="0:1 1:3 3:7"/>
    </vehicle>
    <vehicle id="100" depart="40.00">
        <route edges="7:3 3:1 1:0 0:2 2:8"/>
    </vehicle>
    <vehicle id="106" depart="42.40">
        <route edges="8:2 2:0"/>
    </vehicle>
    <vehicle id="109" depart="43.60">
        <route edges="7:3 3:1 1:0 0:2 2:8"/>
    </vehicle>
    <vehicle id="112" depart="44.80">
        <route edges="0:2 2:8"/>
    </vehicle>
    <vehicle id="113" depart="45.20">
        <route edges="8:2 2:0"/>
    </vehicle>
    <vehicle id="115" depart="46.00">
        <route edges="9:0 0:2"/>
    </vehicle>
    <vehicle id="119" depart="47.60">
        <route edges="8:2 2:0 0:1 1:3"/>
    </vehicle>
    <vehicle id="121" depart="48.40">
        <route edges="1:5 5:6"/>
    </vehicle>
    <vehicle id="124" depart="49.60">
        <route edges="10:9 9:0 0:2 2:8"/>
    </vehicle>
    <vehicle id="125" depart="50.00">
        <route edges="7:3 3:1 1:0 0:2 2:8"/>
    </vehicle>
    <vehicle id="126" depart="50.40">
        <route edges="10:9 9:0 0:1 1:3"/>
    </vehicle>
    <vehicle id="129" depart="51.60">
        <route edges="8:2 2:0 0:9"/>
    </vehicle>
    <vehicle id="134" depart="53.60">
        <route edges="7:3 3:1 1:0 0:2"/>
    </vehicle>
    <vehicle id="135" depart="54.00">
        <route edges="7:3 3:1 1:0 0:9 9:10"/>
    </vehicle>
    <vehicle id="137" depart="54.80">
        <route edges="1:3"/>
    </vehicle>
    <vehicle id="138" depart="55.20">
        <route edges="8:2 2:0 0:1 1:3 3:7"/>
    </vehicle>
    <vehicle id="139" depart="55.60">
        <route edges="9:0 0:1 1:5 5:6"/>
    </vehicle>
    <vehicle id="141" depart="56.40">
        <route edges="2:0 0:9"/>
    </vehicle>
    <vehicle id="142" depart="56.80">
        <route edges="8:2 2:0 0:9 9:10"/>
    </vehicle>
    <vehicle id="147" depart="58.80">
        <route edges="3:1 1:5"/>
    </vehicle>
    <vehicle id="150" depart="60.00">
        <route edges="2:0"/>
    </vehicle>
    <vehicle id="153" depart="61.20">
        <route edges="10:9 9:0 0:1 1:5 5:6"/>
    </vehicle>
    <vehicle id="156" depart="62.40">
        <route edges="7:3 3:1 1:0 0:2 2:8"/>
    </vehicle>
    <vehicle id="157" depart="62.80">
        <route edges="1:0 0:2"/>
    </vehicle>
    <vehicle id="159" depart="63.60">
        <route edges="1:0 0:2 2:8"/>
    </vehicle>
    <vehicle id="160" depart="64.00">
        <route edges="7:3 3:1 1:0 0:2 2:8"/>
    </vehicle>
    <vehicle id="162" depart="64.80">
        <route edges="8:2 2:0"/>
    </vehicle>
    <vehicle id="164" depart="65.60">
        <route edges="7:3 3:1 1:0 0:2 2:8"/>
    </vehicle>
    <vehicle id="166" depart="66.40">
        <route edges="7:3 3:1 1:0 0:2 2:8"/>
    </vehicle>
    <vehicle id="167" depart="66.80">
        <route edges="2:0"/>
    </vehicle>
    <vehicle id="172" depart="68.80">
        <route edges="8:2 2:0 0:1 1:3 3:7"/>
    </vehicle>
    <vehicle id="173" depart="69.20">
        <route edges="0:2 2:8"/>
    </vehicle>
    <vehicle id="178" depart="71.20">
        <route edges="7:3 3:1 1:0"/>
    </vehicle>
    <vehicle id="179" depart="71.60">
        <route edges="5:1 1:3 3:7"/>
    </vehicle>
    <vehicle id="182" depart="72.80">
        <route edges="7:3 3:1 1:0 0:2"/>
    </vehicle>
    <vehicle id="183" depart="73.20">
        <route edges="3:1 1:0 0:2 2:8"/>
    </vehicle>
    <vehicle id="193" depart="77.20">
        <route edges="9:0 0:1 1:5"/>
    </vehicle>
    <vehicle id="194" depart="77.60">
        <route edges="8:2 2:0 0:1"/>
    </vehicle>
    <vehicle id="199" depart="79.60">
        <route edges="8:2 2:0 0:1 1:5 5:6"/>
    </vehicle>
    <vehicle id="200" depart="80.00">
        <route edges="1:0 0:9"/>
    </vehicle>
    <vehicle id="205" depart="82.00">
        <route edges="8:2 2:0 0:1 1:5"/>
    </vehicle>
    <vehicle id="208" depart="83.20">
        <route edges="6:5 5:1 1:0 0:9"/>
    </vehicle>
    <vehicle id="209" depart="83.60">
        <route edges="2:0 0:1 1:3"/>
    </vehicle>
    <vehicle id="213" depart="85.20">
        <route edges="7:3 3:1 1:0 0:2 2:8"/>
    </vehicle>
    <vehicle id="214" depart="85.60">
        <route edges="8:2 2:0"/>
    </vehicle>
    <vehicle id="216" depart="86.40">
        <route edges="1:0 0:2 2:8"/>
    </vehicle>
    <vehicle id="217" depart="86.80">
        <route edges="8:2 2:0 0:1 1:3 3:7"/>
    </vehicle>
    <vehicle id="218" depart="87.20">
        <route edges="10:9 9:0 0:1 1:3"/>
    </vehicle>
    <vehicle id="222" depart="88.80">
        <route edges="7:3 3:1 1:0 0:2 2:8"/>
    </vehicle>
    <vehicle id="224" depart="89.60">
        <route edges="8:2 2:0 0:9 9:10"/>
    </vehicle>
    <vehicle id="225" depart="90.00">
        <route edges="5:1 1:3 3:7"/>
    </vehicle>
    <vehicle id="226" depart="90.40">
        <route edges="10:9 9:0 0:1 1:3 3:7"/>
    </vehicle>
    <vehicle id="231" depart="92.40">
        <route edges="6:5 5:1"/>
    </vehicle>
    <vehicle id="233" depart="93.20">
        <route edges="7:3 3:1 1:0"/>
    </vehicle>
    <vehicle id="237" depart="94.80">
        <route edges="7:3 3:1 1:0 0:9 9:10"/>
    </vehicle>
    <vehicle id="239" depart="95.60">
        <route edges="2:0 0:1 1:5"/>
    </vehicle>
    <vehicle id="240" depart="96.00">
        <route edges="8:2 2:0 0:1 1:3 3:7"/>
    </vehicle>
    <vehicle id="241" depart="96.40">
        <route edges="5:1 1:3 3:7"/>
    </vehicle>
    <vehicle id="243" depart="97.20">
        <route edges="0:2 2:8"/>
    </vehicle>
    <vehicle id="244" depart="97.60">
        <route edges="10:9 9:0 0:2 2:8"/>
    </vehicle>
    <vehicle id="245" depart="98.00">
        <route edges="10:9 9:0 0:1 1:5 5:6"/>
    </vehicle>
    <vehicle id="248" depart="99.20">
        <route edges="7:3 3:1 1:0 0:2 2:8"/>
    </vehicle>
    <vehicle id="249" depart="99.60">
        <route edges="7:3 3:1 1:5 5:6"/>
    </vehicle>
    <vehicle id="250" depart="100.00">
        <route edges="8:2 2:0 0:1 1:3"/>
    </vehicle>
    <vehicle id="251" depart="100.40">
        <route edges="6:5 5:1 1:0"/>
    </vehicle>
    <vehicle id="252" depart="100.80">
        <route edges="7:3 3:1 1:0"/>
    </vehicle>
    <vehicle id="254" depart="101.60">
        <route edges="7:3 3:1 1:0 0:9 9:10"/>
    </vehicle>
    <vehicle id="255" depart="102.00">
        <route edges="8:2 2:0 0:9 9:10"/>
    </vehicle>
    <vehicle id="256" depart="102.40">
        <route edges="1:0 0:2 2:8"/>
    </vehicle>
    <vehicle id="258" depart="103.20">
        <route edges="8:2 2:0"/>
    </vehicle>
    <vehicle id="259" depart="103.60">
        <route edges="8:2 2:0"/>
    </vehicle>
    <vehicle id="260" depart="104.00">
        <route edges="0:2"/>
    </vehicle>
    <vehicle id="261" depart="104.40">
        <route edges="8:2 2:0 0:1 1:3 3:7"/>
    </vehicle>
    <vehicle id="264" depart="105.60">
        <route edges="7:3 3:1 1:0 0:2"/>
    </vehicle>
    <vehicle id="266" depart="106.40">
        <route edges="6:5 5:1 1:0"/>
    </vehicle>
    <vehicle id="267" depart="106.80">
        <route edges="7:3 3:1 1:0"/>
    </vehicle>
    <vehicle id="268" depart="107.20">
        <route edges="8:2 2:0 0:9 9:10"/>
    </vehicle>
    <vehicle id="273" depart="109.20">
        <route edges="7:3 3:1 1:5"/>
    </vehicle>
    <vehicle id="275" depart="110.00">
        <route edges="7:3 3:1 1:5"/>
    </vehicle>
    <vehicle id="276" depart="110.40">
        <route edges="8:2 2:0 0:1 1:5"/>
    </vehicle>
    <vehicle id="277" depart="110.80">
        <route edges="8:2 2:0 0:1 1:3 3:7"/>
    </vehicle>
    <vehicle id="279" depart="111.60">
        <route edges="10:9 9:0 0:1"/>
    </vehicle>
    <vehicle id="280" depart="112.00">
        <route edges="6:5 5:1 1:0 0:2 2:8"/>
    </vehicle>
    <vehicle id="281" depart="112.40">
        <route edges="8:2 2:0 0:9 9:10"/>
    </vehicle>
    <vehicle id="282" depart="112.80">
        <route edges="8:2 2:0 0:1 1:5"/>
    </vehicle>
    <vehicle id="283" depart="113.20">
        <route edges="2:0 0:1 1:5"/>
    </vehicle>
    <vehicle id="284" depart="113.60">
        <route edges="8:2 2:0"/>
    </vehicle>
    <vehicle id="285" depart="114.00">
        <route edges="5:1 1:0 0:9"/>
    </vehicle>
    <vehicle id="286" depart="114.40">
        <route edges="7:3 3:1 1:0 0:9 9:10"/>
    </vehicle>
    <vehicle id="287" depart="114.80">
        <route edges="1:3 3:7"/>
    </vehicle>
    <vehicle id="291" depart="116.40">
        <route edges="7:3 3:1 1:0 0:2 2:8"/>
    </vehicle>
    <vehicle id="292" depart="116.80">
        <route edges="8:2 2:0 0:1"/>
    </vehicle>
    <vehicle id="293" depart="117.20">
        <route edges="3:1 1:0 0:9 9:10"/>
    </vehicle>
    <vehicle id="294" depart="117.60">
        <route edges="0:2 2:8"/>
    </vehicle>
    <vehicle id="300" depart="120.00">
        <route edges="7:3 3:1 1:0 0:2 2:8"/>
    </vehicle>
    <vehicle id="302" depart="120.80">
        <route edges="10:9 9:0 0:1 1:3"/>
    </vehicle>
    <vehicle id="303" depart="121.20">
        <route edges="5:1 1:3 3:7"/>
    </vehicle>
    <vehicle id="304" depart="121.60">
        <route edges="9:0 0:2"/>
    </vehicle>
    <vehicle id="307" depart="122.80">
        <route edges="1:3 3:7"/>
    </vehicle>
    <vehicle id="309" depart="123.60">
        <route edges="8:2 2:0 0:1 1:3 3:7"/>
    </vehicle>
    <vehicle id="311" depart="124.40">
        <route edges="8:2 2:0"/>
    </vehicle>
    <vehicle id="313" depart="125.20">
        <route edges="8:2 2:0 0:9 9:10"/>
    </vehicle>
    <vehicle id="315" depart="126.00">
        <route edges="0:2 2:8"/>
    </vehicle>
    <vehicle id="318" depart="127.20">
        <route edges="7:3 3:1"/>
    </vehicle>
    <vehicle id="319" depart="127.60">
        <route edges="7:3 3:1 1:0 0:2 2:8"/>
    </vehicle>
    <vehicle id="324" depart="129.60">
        <route edges="2:0 0:1 1:5 5:6"/>
    </vehicle>
    <vehicle id="325" depart="130.00">
        <route edges="8:2 2:0 0:9"/>
    </vehicle>
    <vehicle id="328" depart="131.20">
        <route edges="10:9 9:0 0:1"/>
    </vehicle>
    <vehicle id="333" depart="133.20">
        <route edges="8:2 2:0 0:1 1:3 3:7"/>
    </vehicle>
    <vehicle id="334" depart="133.60">
        <route edges="7:3 3:1 1:0 0:2 2:8"/>
    </vehicle>
    <vehicle id="336" depart="134.40">
        <route edges="8:2 2:0 0:1 1:3"/>
    </vehicle>
    <vehicle id="338" depart="135.20">
        <route edges="6:5 5:1 1:0 0:9"/>
    </vehicle>
    <vehicle id="339" depart="135.60">
        <route edges="7:3 3:1 1:0 0:9 9:10"/>
    </vehicle>
    <vehicle id="342" depart="136.80">
        <route edges="0:1 1:3 3:7"/>
    </vehicle>
    <vehicle id="346" depart="138.40">
        <route edges="9:0 0:1 1:5 5:6"/>
    </vehicle>
    <vehicle id="347" depart="138.80">
        <route edges="9:0 0:2"/>
    </vehicle>
    <vehicle id="350" depart="140.00">
        <route edges="8:2 2:0"/>
    </vehicle>
    <vehicle id="351" depart="140.40">
        <route edges="8:2 2:0 0:1 1:3 3:7"/>
    </vehicle>
    <vehicle id="353" depart="141.20">
        <route edges="9:0 0:2"/>
    </vehicle>
    <vehicle id="356" depart="142.40">
        <route edges="6:5 5:1 1:3"/>
    </vehicle>
    <vehicle id="357" depart="142.80">
        <route edges="6:5 5:1 1:3"/>
    </vehicle>
    <vehicle id="358" depart="143.20">
        <route edges="1:0 0:2 2:8"/>
    </vehicle>
    <vehicle id="359" depart="143.60">
        <route edges="0:2 2:8"/>
    </vehicle>
    <vehicle id="360" depart="144.00">
        <route edges="8:2 2:0 0:1 1:3 3:7"/>
    </vehicle>
    <vehicle id="361" depart="144.40">
        <route edges="8:2 2:0 0:1"/>
    </vehicle>
    <vehicle id="362" depart="144.80">
        <route edges="1:0 0:2 2:8"/>
    </vehicle>
    <vehicle id="365" depart="146.00">
        <route edges="0:1 1:3 3:7"/>
    </vehicle>
    <vehicle id="366" depart="146.40">
        <route edges="3:1 1:0 0:2"/>
    </vehicle>
    <vehicle id="368" depart="147.20">
        <route edges="7:3 3:1 1:5 5:6"/>
    </vehicle>
    <vehicle id="371" depart="148.40">
        <route edges="8:2 2:0 0:1 1:3 3:7"/>
    </vehicle>
    <vehicle id="372" depart="148.80">
        <route edges="1:3 3:7"/>
    </vehicle>
    <vehicle id="373" depart="149.20">
        <route edges="2:0 0:1 1:3"/>
    </vehicle>
    <vehicle id="374" depart="149.60">
        <route edges="7:3 3:1"/>
    </vehicle>
    <vehicle id="377" depart="150.80">
        <route edges="8:2 2:0 0:1 1:3 3:7"/>
    </vehicle>
    <vehicle id="383" depart="153.20">
        <route edges="7:3 3:1 1:0 0:2 2:8"/>
    </vehicle>
    <vehicle id="390" depart="156.00">
        <route edges="8:2 2:0 0:9 9:10"/>
    </vehicle>
    <vehicle id="391" depart="156.40">
        <route edges="0:2 2:8"/>
    </vehicle>
    <vehicle id="392" depart="156.80">
        <route edges="9:0 0:1 1:3"/>
    </vehicle>
    <vehicle id="397" depart="158.80">
        <route edges="10:9 9:0 0:1 1:3 3:7"/>
    </vehicle>
    <vehicle id="399" depart="159.60">
        <route edges="5:1 1:0 0:2 2:8"/>
    </vehicle>
    <vehicle id="402" depart="160.80">
        <route edges="0:1 1:3 3:7"/>
    </vehicle>
    <vehicle id="405" depart="162.00">
        <route edges="0:2 2:8"/>
    </vehicle>
    <vehicle id="407" depart="162.80">
        <route edges="5:1 1:0 0:9 9:10"/>
    </vehicle>
    <vehicle id="408" depart="163.20">
        <route edges="8:2 2:0"/>
    </vehicle>
    <vehicle id="409" depart="163.60">
        <route edges="3:1 1:0 0:2 2:8"/>
    </vehicle>
    <vehicle id="412" depart="164.80">
        <route edges="9:0 0:1 1:5"/>
    </vehicle>
    <vehicle id="418" depart="167.20">
        <route edges="10:9 9:0 0:1 1:5 5:6"/>
    </vehicle>
    <vehicle id="420" depart="168.00">
        <route edges="8:2 2:0"/>
    </vehicle>
    <vehicle id="421" depart="168.40">
        <route edges="3:1"/>
    </vehicle>
    <vehicle id="422" depart="168.80">
        <route edges="2:0"/>
    </vehicle>
    <vehicle id="423" depart="169.20">
        <route edges="8:2 2:0 0:1 1:3"/>
    </vehicle>
    <vehicle id="424" depart="169.60">
        <route edges="6:5 5:1 1:3 3:7"/>
    </vehicle>
    <vehicle id="431" depart="172.40">
        <route edges="8:2 2:0 0:1 1:3 3:7"/>
    </vehicle>
    <vehicle id="433" depart="173.20">
        <route edges="3:1 1:0 0:9 9:10"/>
    </vehicle>
    <vehicle id="434" depart="173.60">
        <route edges="9:0 0:2 2:8"/>
    </vehicle>
    <vehicle id="447" depart="178.80">
        <route edges="10:9 9:0"/>
    </vehicle>
    <vehicle id="451" depart="180.40">
        <route edges="10:9 9:0"/>
    </vehicle>
    <vehicle id="452" depart="180.80">
        <route edges="10:9 9:0 0:1 1:5 5:6"/>
    </vehicle>
    <vehicle id="455" depart="182.00">
        <route edges="9:0 0:1 1:3 3:7"/>
    </vehicle>
    <vehicle id="458" depart="183.20">
        <route edges="5:1 1:3 3:7"/>
    </vehicle>
    <vehicle id="459" depart="183.60">
        <route edges="7:3 3:1 1:0"/>
    </vehicle>
    <vehicle id="462" depart="184.80">
        <route edges="8:2 2:0 0:1 1:3 3:7"/>
    </vehicle>
    <vehicle id="463" depart="185.20">
        <route edges="6:5 5:1 1:3"/>
    </vehicle>
    <vehicle id="464" depart="185.60">
        <route edges="3:1"/>
    </vehicle>
    <vehicle id="465" depart="186.00">
        <route edges="2:0 0:1 1:5 5:6"/>
    </vehicle>
    <vehicle id="466" depart="186.40">
        <route edges="10:9 9:0 0:1 1:3 3:7"/>
    </vehicle>
    <vehicle id="468" depart="187.20">
        <route edges="7:3 3:1 1:0 0:2"/>
    </vehicle>
    <vehicle id="469" depart="187.60">
        <route edges="8:2 2:0 0:1 1:3"/>
    </vehicle>
    <vehicle id="470" depart="188.00">
        <route edges="5:1 1:3"/>
    </vehicle>
    <vehicle id="474" depart="189.60">
        <route edges="3:1 1:5"/>
    </vehicle>
    <vehicle id="477" depart="190.80">
        <route edges="1:3 3:7"/>
    </vehicle>
    <vehicle id="479" depart="191.60">
        <route edges="7:3 3:1 1:0 0:2"/>
    </vehicle>
    <vehicle id="481" depart="192.40">
        <route edges="2:0 0:1 1:3 3:7"/>
    </vehicle>
    <vehicle id="482" depart="192.80">
        <route edges="0:1 1:5 5:6"/>
    </vehicle>
    <vehicle id="485" depart="194.00">
        <route edges="10:9 9:0 0:1 1:3"/>
    </vehicle>
    <vehicle id="486" depart="194.40">
        <route edges="10:9 9:0 0:1 1:5"/>
    </vehicle>
    <vehicle id="489" depart="195.60">
        <route edges="0:1 1:3 3:7"/>
    </vehicle>
    <vehicle id="491" depart="196.40">
        <route edges="6:5 5:1 1:0 0:2 2:8"/>
    </vehicle>
    <vehicle id="493" depart="197.20">
        <route edges="9:0 0:1 1:5 5:6"/>
    </vehicle>
    <vehicle id="494" depart="197.60">
        <route edges="9:0 0:2 2:8"/>
    </vehicle>
    <vehicle id="496" depart="198.40">
        <route edges="8:2 2:0 0:1 1:3 3:7"/>
    </vehicle>
    <vehicle id="497" depart="198.80">
        <route edges="3:1 1:5 5:6"/>
    </vehicle>
    <vehicle id="498" depart="199.20">
        <route edges="7:3 3:1 1:0 0:9 9:10"/>
    </vehicle>
    <vehicle id="499" depart="199.60">
        <route edges="7:3 3:1 1:0 0:9 9:10"/>
    </vehicle>
    <vehicle id="500" depart="200.00">
        <route edges="5:1 1:0 0:2 2:8"/>
    </vehicle>
    <vehicle id="501" depart="200.40">
        <route edges="2:0 0:1 1:5 5:6"/>
    </vehicle>
    <vehicle id="502" depart="200.80">
        <route edges="7:3 3:1 1:0 0:2 2:8"/>
    </vehicle>
    <vehicle id="505" depart="202.00">
        <route edges="9:0 0:1 1:3"/>
    </vehicle>
    <vehicle id="506" depart="202.40">
        <route edges="7:3 3:1 1:0 0:2 2:8"/>
    </vehicle>
    <vehicle id="507" depart="202.80">
        <route edges="8:2 2:0"/>
    </vehicle>
    <vehicle id="514" depart="205.60">
        <route edges="5:1 1:3 3:7"/>
    </vehicle>
    <vehicle id="515" depart="206.00">
        <route edges="7:3 3:1 1:0 0:2"/>
    </vehicle>
    <vehicle id="516" depart="206.40">
        <route edges="7:3 3:1 1:0 0:9"/>
    </vehicle>
    <vehicle id="519" depart="207.60">
        <route edges="7:3 3:1 1:0"/>
    </vehicle>
    <vehicle id="520" depart="208.00">
        <route edges="8:2 2:0 0:1 1:3"/>
    </vehicle>
    <vehicle id="521" depart="208.40">
        <route edges="10:9 9:0"/>
    </vehicle>
    <vehicle id="522" depart="208.80">
        <route edges="8:2 2:0 0:1"/>
    </vehicle>
    <vehicle id="523" depart="209.20">
        <route edges="6:5 5:1 1:0 0:9 9:10"/>
    </vehicle>
    <vehicle id="528" depart="211.20">
        <route edges="10:9 9:0 0:2 2:8"/>
    </vehicle>
    <vehicle id="532" depart="212.80">
        <route edges="7:3 3:1 1:0 0:2"/>
    </vehicle>
    <vehicle id="534" depart="213.60">
        <route edges="0:2 2:8"/>
    </vehicle>
    <vehicle id="535" depart="214.00">
        <route edges="8:2 2:0 0:1 1:3"/>
    </vehicle>
    <vehicle id="536" depart="214.40">
        <route edges="5:1 1:0 0:2"/>
    </vehicle>
    <vehicle id="537" depart="214.80">
        <route edges="6:5 5:1 1:3 3:7"/>
    </vehicle>
    <vehicle id="543" depart="217.20">
        <route edges="2:0 0:1 1:5 5:6"/>
    </vehicle>
    <vehicle id="545" depart="218.00">
        <route edges="0:1 1:3 3:7"/>
    </vehicle>
    <vehicle id="546" depart="218.40">
        <route edges="0:1"/>
    </vehicle>
    <vehicle id="547" depart="218.80">
        <route edges="7:3 3:1 1:5"/>
    </vehicle>
    <vehicle id="548" depart="219.20">
        <route edges="10:9 9:0 0:1 1:3 3:7"/>
    </vehicle>
    <vehicle id="550" depart="220.00">
        <route edges="8:2 2:0 0:1 1:5"/>
    </vehicle>
    <vehicle id="551" depart="220.40">
        <route edges="2:0 0:1 1:3"/>
    </vehicle>
    <vehicle id="554" depart="221.60">
        <route edges="6:5 5:1 1:0 0:2 2:8"/>
    </vehicle>
    <vehicle id="555" depart="222.00">
        <route edges="8:2 2:0 0:9 9:10"/>
    </vehicle>
    <vehicle id="557" depart="222.80">
        <route edges="1:3 3:7"/>
    </vehicle>
    <vehicle id="558" depart="223.20">
        <route edges="8:2 2:0"/>
    </vehicle>
    <vehicle id="560" depart="224.00">
        <route edges="8:2 2:0 0:1 1:5 5:6"/>
    </vehicle>
    <vehicle id="564" depart="225.60">
        <route edges="3:1 1:0 0:2 2:8"/>
    </vehicle>
    <vehicle id="567" depart="226.80">
        <route edges="6:5 5:1 1:0 0:2"/>
    </vehicle>
    <vehicle id="568" depart="227.20">
        <route edges="1:5"/>
    </vehicle>
    <vehicle id="571" depart="228.40">
        <route edges="8:2 2:0 0:9"/>
    </vehicle>
    <vehicle id="572" depart="228.80">
        <route edges="1:0"/>
    </vehicle>
    <vehicle id="579" depart="231.60">
        <route edges="0:2"/>
    </vehicle>
    <vehicle id="580" depart="232.00">
        <route edges="8:2 2:0"/>
    </vehicle>
    <vehicle id="581" depart="232.40">
        <route edges="8:2 2:0 0:1 1:5"/>
    </vehicle>
    <vehicle id="584" depart="233.60">
        <route edges="5:1"/>
    </vehicle>
    <vehicle id="585" depart="234.00">
        <route edges="2:0 0:1 1:3"/>
    </vehicle>
    <vehicle id="587" depart="234.80">
        <route edges="2:0 0:1 1:3 3:7"/>
    </vehicle>
    <vehicle id="589" depart="235.60">
        <route edges="5:1 1:0 0:2 2:8"/>
    </vehicle>
    <vehicle id="590" depart="236.00">
        <route edges="2:0 0:1 1:5"/>
    </vehicle>
    <vehicle id="593" depart="237.20">
        <route edges="8:2 2:0 0:9 9:10"/>
    </vehicle>
    <vehicle id="594" depart="237.60">
        <route edges="5:1 1:3"/>
    </vehicle>
    <vehicle id="596" depart="238.40">
        <route edges="3:1 1:5"/>
    </vehicle>
    <vehicle id="597" depart="238.80">
        <route edges="3:1 1:0 0:2"/>
    </vehicle>
    <vehicle id="598" depart="239.20">
        <route edges="0:1 1:3 3:7"/>
    </vehicle>
    <vehicle id="599" depart="239.60">
        <route edges="5:1 1:3 3:7"/>
    </vehicle>
    <vehicle id="600" depart="240.00">
        <route edges="7:3 3:1 1:0 0:2"/>
    </vehicle>
    <vehicle id="605" depart="242.00">
        <route edges="8:2 2:0 0:1 1:3"/>
    </vehicle>
    <vehicle id="613" depart="245.20">
        <route edges="7:3 3:1 1:0 0:2 2:8"/>
    </vehicle>
    <vehicle id="616" depart="246.40">
        <route edges="7:3 3:1"/>
    </vehicle>
    <vehicle id="617" depart="246.80">
        <route edges="7:3 3:1 1:0 0:2 2:8"/>
    </vehicle>
    <vehicle id="619" depart="247.60">
        <route edges="2:0 0:1 1:3 3:7"/>
    </vehicle>
    <vehicle id="621" depart="248.40">
        <route edges="8:2 2:0"/>
    </vehicle>
    <vehicle id="623" depart="249.20">
        <route edges="10:9 9:0 0:1 1:5 5:6"/>
    </vehicle>
    <vehicle id="625" depart="250.00">
        <route edges="2:0 0:1 1:5"/>
    </vehicle>
    <vehicle id="626" depart="250.40">
        <route edges="6:5 5:1 1:0 0:2"/>
    </vehicle>
    <vehicle id="627" depart="250.80">
        <route edges="7:3 3:1 1:0"/>
    </vehicle>
    <vehicle id="628" depart="251.20">
        <route edges="1:0 0:9"/>
    </vehicle>
    <vehicle id="629" depart="251.60">
        <route edges="7:3 3:1 1:5 5:6"/>
    </vehicle>
    <vehicle id="630" depart="252.00">
        <route edges="6:5 5:1 1:0 0:2 2:8"/>
    </vehicle>
    <vehicle id="632" depart="252.80">
        <route edges="2:0 0:1 1:3 3:7"/>
    </vehicle>
    <vehicle id="634" depart="253.60">
        <route edges="0:1 1:5"/>
    </vehicle>
    <vehicle id="635" depart="254.00">
        <route edges="1:3 3:7"/>
    </vehicle>
    <vehicle id="636" depart="254.40">
        <route edges="8:2 2:0"/>
    </vehicle>
    <vehicle id="637" depart="254.80">
        <route edges="5:1 1:0 0:2 2:8"/>
    </vehicle>
    <vehicle id="638" depart="255.20">
        <route edges="8:2 2:0 0:1 1:3 3:7"/>
    </vehicle>
    <vehicle id="640" depart="256.00">
        <route edges="3:1 1:0 0:2"/>
    </vehicle>
    <vehicle id="644" depart="257.60">
        <route edges="7:3 3:1 1:0 0:2 2:8"/>
    </vehicle>
    <vehicle id="647" depart="258.80">
        <route edges="9:0 0:1 1:5 5:6"/>
    </vehicle>
    <vehicle id="648" depart="259.20">
        <route edges="2:0 0:9"/>
    </vehicle>
    <vehicle id="649" depart="259.60">
        <route edges="7:3 3:1"/>
    </vehicle>
    <vehicle id="651" depart="260.40">
        <route edges="1:3 3:7"/>
    </vehicle>
    <vehicle id="652" depart="260.80">
        <route edges="8:2 2:0 0:9 9:10"/>
    </vehicle>
    <vehicle id="653" depart="261.20">
        <route edges="10:9 9:0 0:1 1:3"/>
    </vehicle>
    <vehicle id="654" depart="261.60">
        <route edges="0:1"/>
    </vehicle>
    <vehicle id="655" depart="262.00">
        <route edges="0:1"/>
    </vehicle>
    <vehicle id="656" depart="262.40">
        <route edges="10:9 9:0 0:2"/>
    </vehicle>
    <vehicle id="657" depart="262.80">
        <route edges="8:2 2:0 0:1 1:3"/>
    </vehicle>
    <vehicle id="658" depart="263.20">
        <route edges="3:1 1:0 0:2"/>
    </vehicle>
    <vehicle id="660" depart="264.00">
        <route edges="3:1 1:0 0:2 2:8"/>
    </vehicle>
    <vehicle id="661" depart="264.40">
        <route edges="9:0 0:1"/>
    </vehicle>
    <vehicle id="668" depart="267.20">
        <route edges="0:2 2:8"/>
    </vehicle>
    <vehicle id="669" depart="267.60">
        <route edges="2:0"/>
    </vehicle>
    <vehicle id="670" depart="268.00">
        <route edges="2:0 0:9"/>
    </vehicle>
    <vehicle id="671" depart="268.40">
        <route edges="2:0 0:9 9:10"/>
    </vehicle>
    <vehicle id="673" depart="269.20">
        <route edges="6:5 5:1 1:3 3:7"/>
    </vehicle>
    <vehicle id="674" depart="269.60">