<?xml version="1.0" encoding="UTF-8"?>

<!-- generated on Thu Feb 13 14:16:07 2014 by SUMO duarouter Version 0.18.0
<?xml version="1.0" encoding="UTF-8"?>

<configuration xmlns:xsi="http://www.w3.org/2001/XMLSchema-instance" xsi:noNamespaceSchemaLocation="http://sumo.sf.net/xsd/duarouterConfiguration.xsd">

    <input>
        <net-file value="twinT.net.xml"/>
        <trip-files value="experimentos/twinT.p0.7.3.trips.xml"/>
    </input>

    <output>
        <output-file value="experimentos/twinT.p0.7.3.rou.xml"/>
    </output>

    <processing>
        <ignore-errors value="true"/>
    </processing>

    <random_number>
        <random value="true"/>
    </random_number>

</configuration>
-->

<routes xmlns:xsi="http://www.w3.org/2001/XMLSchema-instance" xsi:noNamespaceSchemaLocation="http://sumo.sf.net/xsd/routes_file.xsd">
    <vehicle id="0" depart="0.00">
        <route edges="9:0 0:1"/>
    </vehicle>
    <vehicle id="1" depart="0.70">
        <route edges="3:1 1:0"/>
    </vehicle>
    <vehicle id="3" depart="2.10">
        <route edges="3:1 1:0 0:2 2:8"/>
    </vehicle>
    <vehicle id="6" depart="4.20">
        <route edges="3:1 1:0 0:2"/>
    </vehicle>
    <vehicle id="7" depart="4.90">
        <route edges="1:3 3:7"/>
    </vehicle>
    <vehicle id="9" depart="6.30">
        <route edges="7:3 3:1 1:5 5:6"/>
    </vehicle>
    <vehicle id="10" depart="7.00">
        <route edges="9:0 0:2"/>
    </vehicle>
    <vehicle id="14" depart="9.80">
        <route edges="10:9 9:0 0:1 1:3"/>
    </vehicle>
    <vehicle id="17" depart="11.90">
        <route edges="7:3 3:1 1:0 0:9 9:10"/>
    </vehicle>
    <vehicle id="18" depart="12.60">
        <route edges="7:3 3:1 1:0 0:2 2:8"/>
    </vehicle>
    <vehicle id="19" depart="13.30">
        <route edges="2:0"/>
    </vehicle>
    <vehicle id="21" depart="14.70">
        <route edges="10:9 9:0 0:2 2:8"/>
    </vehicle>
    <vehicle id="22" depart="15.40">
        <route edges="10:9 9:0 0:2"/>
    </vehicle>
    <vehicle id="24" depart="16.80">
        <route edges="7:3 3:1 1:0 0:2 2:8"/>
    </vehicle>
    <vehicle id="25" depart="17.50">
        <route edges="10:9 9:0 0:1 1:3"/>
    </vehicle>
    <vehicle id="27" depart="18.90">
        <route edges="3:1 1:0"/>
    </vehicle>
    <vehicle id="28" depart="19.60">
        <route edges="10:9 9:0 0:2 2:8"/>
    </vehicle>
    <vehicle id="30" depart="21.00">
        <route edges="5:1 1:3"/>
    </vehicle>
    <vehicle id="33" depart="23.10">
        <route edges="0:2"/>
    </vehicle>
    <vehicle id="35" depart="24.50">
        <route edges="1:0 0:2"/>
    </vehicle>
    <vehicle id="37" depart="25.90">
        <route edges="0:2"/>
    </vehicle>
    <vehicle id="39" depart="27.30">
        <route edges="7:3 3:1 1:5 5:6"/>
    </vehicle>
    <vehicle id="42" depart="29.40">
        <route edges="5:1 1:0"/>
    </vehicle>
    <vehicle id="45" depart="31.50">
        <route edges="7:3 3:1 1:0 0:9 9:10"/>
    </vehicle>
    <vehicle id="49" depart="34.30">
        <route edges="8:2 2:0 0:1 1:3"/>
    </vehicle>
    <vehicle id="50" depart="35.00">
        <route edges="8:2 2:0 0:1 1:3 3:7"/>
    </vehicle>
    <vehicle id="51" depart="35.70">
        <route edges="10:9 9:0 0:2 2:8"/>
    </vehicle>
    <vehicle id="52" depart="36.40">
        <route edges="2:0 0:1 1:3 3:7"/>
    </vehicle>
    <vehicle id="56" depart="39.20">
        <route edges="1:3 3:7"/>
    </vehicle>
    <vehicle id="58" depart="40.60">
        <route edges="3:1 1:0 0:2 2:8"/>
    </vehicle>
    <vehicle id="59" depart="41.30">
        <route edges="7:3 3:1 1:0 0:2 2:8"/>
    </vehicle>
    <vehicle id="61" depart="42.70">
        <route edges="7:3 3:1"/>
    </vehicle>
    <vehicle id="64" depart="44.80">
        <route edges="5:1 1:0 0:2"/>
    </vehicle>
    <vehicle id="65" depart="45.50">
        <route edges="10:9 9:0 0:2 2:8"/>
    </vehicle>
    <vehicle id="68" depart="47.60">
        <route edges="9:0 0:1 1:5 5:6"/>
    </vehicle>
    <vehicle id="70" depart="49.00">
        <route edges="8:2 2:0 0:1 1:5 5:6"/>
    </vehicle>
    <vehicle id="71" depart="49.70">
        <route edges="6:5 5:1 1:3"/>
    </vehicle>
    <vehicle id="72" depart="50.40">
        <route edges="2:0 0:1 1:3 3:7"/>
    </vehicle>
    <vehicle id="73" depart="51.10">
        <route edges="7:3 3:1 1:5 5:6"/>
    </vehicle>
    <vehicle id="77" depart="53.90">
        <route edges="7:3 3:1 1:5 5:6"/>
    </vehicle>
    <vehicle id="78" depart="54.60">
        <route edges="0:2 2:8"/>
    </vehicle>
    <vehicle id="83" depart="58.10">
        <route edges="8:2 2:0 0:1 1:3"/>
    </vehicle>
    <vehicle id="84" depart="58.80">
        <route edges="2:0"/>
    </vehicle>
    <vehicle id="87" depart="60.90">
        <route edges="3:1 1:0 0:9"/>
    </vehicle>
    <vehicle id="88" depart="61.60">
        <route edges="7:3 3:1 1:0 0:2"/>
    </vehicle>
    <vehicle id="90" depart="63.00">
        <route edges="7:3 3:1 1:0 0:9 9:10"/>
    </vehicle>
    <vehicle id="92" depart="64.40">
        <route edges="8:2 2:0 0:1 1:5 5:6"/>
    </vehicle>
    <vehicle id="93" depart="65.10">
        <route edges="8:2 2:0 0:1 1:3 3:7"/>
    </vehicle>
    <vehicle id="99" depart="69.30">
        <route edges="10:9 9:0 0:1"/>
    </vehicle>
    <vehicle id="100" depart="70.00">
        <route edges="3:1 1:0 0:9 9:10"/>
    </vehicle>
    <vehicle id="103" depart="72.10">
        <route edges="7:3 3:1 1:0 0:2 2:8"/>
    </vehicle>
    <vehicle id="105" depart="73.50">
        <route edges="7:3 3:1 1:5 5:6"/>
    </vehicle>
    <vehicle id="108" depart="75.60">
        <route edges="7:3 3:1 1:5"/>
    </vehicle>
    <vehicle id="112" depart="78.40">
        <route edges="2:0 0:1 1:3"/>
    </vehicle>
    <vehicle id="113" depart="79.10">
        <route edges="8:2 2:0 0:1 1:3 3:7"/>
    </vehicle>
    <vehicle id="114" depart="79.80">
        <route edges="2:0 0:1"/>
    </vehicle>
    <vehicle id="115" depart="80.50">
        <route edges="8:2 2:0 0:1 1:5"/>
    </vehicle>
    <vehicle id="117" depart="81.90">
        <route edges="7:3 3:1 1:0"/>
    </vehicle>
    <vehicle id="120" depart="84.00">
        <route edges="0:1 1:3"/>
    </vehicle>
    <vehicle id="121" depart="84.70">
        <route edges="7:3 3:1 1:0 0:2"/>
    </vehicle>
    <vehicle id="122" depart="85.40">
        <route edges="10:9 9:0 0:1 1:3"/>
    </vehicle>
    <vehicle id="123" depart="86.10">
        <route edges="7:3 3:1 1:0 0:2"/>
    </vehicle>
    <vehicle id="124" depart="86.80">
        <route edges="8:2 2:0 0:9 9:10"/>
    </vehicle>
    <vehicle id="130" depart="91.00">
        <route edges="5:1 1:0 0:9"/>
    </vehicle>
    <vehicle id="132" depart="92.40">
        <route edges="10:9 9:0 0:1 1:3"/>
    </vehicle>
    <vehicle id="133" depart="93.10">
        <route edges="1:0 0:9"/>
    </vehicle>
    <vehicle id="135" depart="94.50">
        <route edges="3:1 1:0 0:2 2:8"/>
    </vehicle>
    <vehicle id="136" depart="95.20">
        <route edges="1:3 3:7"/>
    </vehicle>
    <vehicle id="141" depart="98.70">
        <route edges="2:0"/>
    </vehicle>
    <vehicle id="143" depart="100.10">
        <route edges="6:5 5:1 1:3"/>
    </vehicle>
    <vehicle id="145" depart="101.50">
        <route edges="9:0 0:1 1:3"/>
    </vehicle>
    <vehicle id="147" depart="102.90">
        <route edges="1:0 0:9 9:10"/>
    </vehicle>
    <vehicle id="149" depart="104.30">
        <route edges="0:1"/>
    </vehicle>
    <vehicle id="152" depart="106.40">
        <route edges="2:0 0:1 1:3"/>
    </vehicle>
    <vehicle id="153" depart="107.10">
        <route edges="7:3 3:1 1:0 0:9"/>
    </vehicle>
    <vehicle id="157" depart="109.90">
        <route edges="8:2 2:0 0:9"/>
    </vehicle>
    <vehicle id="158" depart="110.60">
        <route edges="7:3 3:1"/>
    </vehicle>
    <vehicle id="159" depart="111.30">
        <route edges="5:1 1:0 0:2"/>
    </vehicle>
    <vehicle id="165" depart="115.50">
        <route edges="6:5 5:1 1:0 0:2 2:8"/>
    </vehicle>
    <vehicle id="166" depart="116.20">
        <route edges="7:3 3:1 1:0 0:2 2:8"/>
    </vehicle>
    <vehicle id="167" depart="116.90">
        <route edges="6:5 5:1 1:0"/>
    </vehicle>
    <vehicle id="168" depart="117.60">
        <route edges="2:0 0:1 1:3 3:7"/>
    </vehicle>
    <vehicle id="170" depart="119.00">
        <route edges="5:1 1:3"/>
    </vehicle>
    <vehicle id="171" depart="119.70">
        <route edges="7:3 3:1 1:0 0:9 9:10"/>
    </vehicle>
    <vehicle id="174" depart="121.80">
        <route edges="8:2 2:0 0:1 1:3"/>
    </vehicle>
    <vehicle id="177" depart="123.90">
        <route edges="7:3 3:1 1:0"/>
    </vehicle>
    <vehicle id="178" depart="124.60">
        <route edges="7:3 3:1 1:5 5:6"/>
    </vehicle>
    <vehicle id="181" depart="126.70">
        <route edges="6:5 5:1 1:3"/>
    </vehicle>
    <vehicle id="184" depart="128.80">
        <route edges="8:2 2:0 0:9 9:10"/>
    </vehicle>
    <vehicle id="185" depart="129.50">
        <route edges="7:3 3:1 1:5"/>
    </vehicle>
    <vehicle id="190" depart="133.00">
        <route edges="1:3"/>
    </vehicle>
    <vehicle id="191" depart="133.70">
        <route edges="8:2 2:0"/>
    </vehicle>
    <vehicle id="192" depart="134.40">
        <route edges="0:2 2:8"/>
    </vehicle>
    <vehicle id="196" depart="137.20">
        <route edges="5:1 1:0 0:9 9:10"/>
    </vehicle>
    <vehicle id="197" depart="137.90">
        <route edges="7:3 3:1"/>
    </vehicle>
    <vehicle id="198" depart="138.60">
        <route edges="10:9 9:0 0:1 1:3"/>
    </vehicle>
    <vehicle id="199" depart="139.30">
        <route edges="8:2 2:0"/>
    </vehicle>
    <vehicle id="202" depart="141.40">
        <route edges="1:3 3:7"/>
    </vehicle>
    <vehicle id="203" depart="142.10">
        <route edges="8:2 2:0 0:1 1:3 3:7"/>
    </vehicle>
    <vehicle id="207" depart="144.90">
        <route edges="2:0 0:9 9:10"/>
    </vehicle>
    <vehicle id="208" depart="145.60">
        <route edges="10:9 9:0 0:1 1:5"/>
    </vehicle>
    <vehicle id="210" depart="147.00">
        <route edges="8:2 2:0 0:1 1:3 3:7"/>
    </vehicle>
    <vehicle id="212" depart="148.40">
        <route edges="5:1 1:3"/>
    </vehicle>
    <vehicle id="213" depart="149.10">
        <route edges="10:9 9:0 0:2 2:8"/>
    </vehicle>
    <vehicle id="214" depart="149.80">
        <route edges="7:3 3:1 1:0 0:2 2:8"/>
    </vehicle>
    <vehicle id="215" depart="150.50">
        <route edges="1:3 3:7"/>
    </vehicle>
    <vehicle id="216" depart="151.20">
        <route edges="9:0"/>
    </vehicle>
    <vehicle id="218" depart="152.60">
        <route edges="8:2 2:0"/>
    </vehicle>
    <vehicle id="219" depart="153.30">
        <route edges="10:9 9:0 0:1 1:3"/>
    </vehicle>
    <vehicle id="220" depart="154.00">
        <route edges="8:2 2:0"/>
    </vehicle>
    <vehicle id="221" depart="154.70">
        <route edges="3:1 1:5"/>
    </vehicle>
    <vehicle id="222" depart="155.40">
        <route edges="5:1 1:0 0:2 2:8"/>
    </vehicle>
    <vehicle id="223" depart="156.10">
        <route edges="7:3 3:1 1:0"/>
    </vehicle>
    <vehicle id="225" depart="157.50">
        <route edges="2:0 0:9 9:10"/>
    </vehicle>
    <vehicle id="227" depart="158.90">
        <route edges="9:0 0:1 1:3"/>
    </vehicle>
    <vehicle id="229" depart="160.30">
        <route edges="7:3 3:1"/>
    </vehicle>
    <vehicle id="230" depart="161.00">
        <route edges="3:1 1:0 0:2"/>
    </vehicle>
    <vehicle id="231" depart="161.70">
        <route edges="0:1 1:3 3:7"/>
    </vehicle>
    <vehicle id="235" depart="164.50">
        <route edges="8:2 2:0 0:9"/>
    </vehicle>
    <vehicle id="238" depart="166.60">
        <route edges="8:2 2:0"/>
    </vehicle>
    <vehicle id="239" depart="167.30">
        <route edges="1:3 3:7"/>
    </vehicle>
    <vehicle id="241" depart="168.70">
        <route edges="6:5 5:1 1:0 0:2 2:8"/>
    </vehicle>
    <vehicle id="242" depart="169.40">
        <route edges="2:0 0:1 1:3"/>
    </vehicle>
    <vehicle id="246" depart="172.20">
        <route edges="2:0 0:1"/>
    </vehicle>
    <vehicle id="247" depart="172.90">
        <route edges="7:3 3:1"/>
    </vehicle>
    <vehicle id="248" depart="173.60">
        <route edges="7:3 3:1 1:5 5:6"/>
    </vehicle>
    <vehicle id="250" depart="175.00">
        <route edges="7:3 3:1 1:0 0:2 2:8"/>
    </vehicle>
    <vehicle id="252" depart="176.40">
        <route edges="1:3 3:7"/>
    </vehicle>
    <vehicle id="256" depart="179.20">
        <route edges="8:2 2:0 0:1 1:3"/>
    </vehicle>
    <vehicle id="257" depart="179.90">
        <route edges="3:1 1:0 0:2 2:8"/>
    </vehicle>
    <vehicle id="261" depart="182.70">
        <route edges="9:0 0:1 1:3 3:7"/>
    </vehicle>
    <vehicle id="263" depart="184.10">
        <route edges="9:0 0:2"/>
    </vehicle>
    <vehicle id="266" depart="186.20">
        <route edges="8:2 2:0 0:1 1:5"/>
    </vehicle>
    <vehicle id="268" depart="187.60">
        <route edges="6:5 5:1 1:0 0:9 9:10"/>
    </vehicle>
    <vehicle id="269" depart="188.30">
        <route edges="2:0 0:1 1:3 3:7"/>
    </vehicle>
    <vehicle id="271" depart="189.70">
        <route edges="1:3 3:7"/>
    </vehicle>
    <vehicle id="272" depart="190.40">
        <route edges="9:0 0:1 1:3"/>
    </vehicle>
    <vehicle id="274" depart="191.80">
        <route edges="1:0 0:2 2:8"/>
    </vehicle>
    <vehicle id="275" depart="192.50">
        <route edges="10:9 9:0 0:2 2:8"/>
    </vehicle>
    <vehicle id="278" depart="194.60">
        <route edges="6:5 5:1 1:0 0:9"/>
    </vehicle>
    <vehicle id="279" depart="195.30">
        <route edges="8:2 2:0"/>
    </vehicle>
    <vehicle id="281" depart="196.70">
        <route edges="8:2 2:0 0:1 1:3 3:7"/>
    </vehicle>
    <vehicle id="282" depart="197.40">
        <route edges="9:0 0:2"/>
    </vehicle>
    <vehicle id="285" depart="199.50">
        <route edges="3:1"/>
    </vehicle>
    <vehicle id="286" depart="200.20">
        <route edges="8:2 2:0 0:1 1:5 5:6"/>
    </vehicle>
    <vehicle id="288" depart="201.60">
        <route edges="3:1 1:0 0:2 2:8"/>
    </vehicle>
    <vehicle id="289" depart="202.30">
        <route edges="0:2 2:8"/>
    </vehicle>
    <vehicle id="290" depart="203.00">
        <route edges="10:9 9:0 0:1 1:3 3:7"/>
    </vehicle>
    <vehicle id="291" depart="203.70">
        <route edges="8:2 2:0 0:1 1:3"/>
    </vehicle>
    <vehicle id="292" depart="204.40">
        <route edges="7:3 3:1"/>
    </vehicle>
    <vehicle id="293" depart="205.10">
        <route edges="8:2 2:0 0:9"/>
    </vehicle>
    <vehicle id="294" depart="205.80">
        <route edges="8:2 2:0"/>
    </vehicle>
    <vehicle id="295" depart="206.50">
        <route edges="8:2 2:0 0:9 9:10"/>
    </vehicle>
    <vehicle id="296" depart="207.20">
        <route edges="6:5 5:1 1:3 3:7"/>
    </vehicle>
    <vehicle id="298" depart="208.60">
        <route edges="8:2 2:0 0:1 1:3 3:7"/>
    </vehicle>
    <vehicle id="299" depart="209.30">
        <route edges="2:0 0:1 1:3 3:7"/>
    </vehicle>
    <vehicle id="300" depart="210.00">
        <route edges="6:5 5:1 1:3 3:7"/>
    </vehicle>
    <vehicle id="301" depart="210.70">
        <route edges="2:0"/>
    </vehicle>
    <vehicle id="303" depart="212.10">
        <route edges="1:0 0:2 2:8"/>
    </vehicle>
    <vehicle id="304" depart="212.80">
        <route edges="5:1 1:0 0:9"/>
    </vehicle>
    <vehicle id="305" depart="213.50">
        <route edges="0:1 1:5 5:6"/>
    </vehicle>
    <vehicle id="312" depart="218.40">
        <route edges="7:3 3:1 1:0 0:2 2:8"/>
    </vehicle>
    <vehicle id="315" depart="220.50">
        <route edges="8:2 2:0"/>
    </vehicle>
    <vehicle id="318" depart="222.60">
        <route edges="6:5 5:1 1:3 3:7"/>
    </vehicle>
    <vehicle id="320" depart="224.00">
        <route edges="5:1 1:0 0:2 2:8"/>
    </vehicle>
    <vehicle id="321" depart="224.70">
        <route edges="8:2 2:0 0:1 1:3 3:7"/>
    </vehicle>
    <vehicle id="322" depart="225.40">
        <route edges="1:3 3:7"/>
    </vehicle>
    <vehicle id="325" depart="227.50">
        <route edges="3:1 1:5 5:6"/>
    </vehicle>
    <vehicle id="328" depart="229.60">
        <route edges="0:1 1:3"/>
    </vehicle>
    <vehicle id="329" depart="230.30">
        <route edges="7:3 3:1 1:0 0:9 9:10"/>
    </vehicle>
    <vehicle id="332" depart="232.40">
        <route edges="7:3 3:1 1:0 0:2 2:8"/>
    </vehicle>
    <vehicle id="333" depart="233.10">
        <route edges="6:5 5:1 1:0 0:2"/>
    </vehicle>
    <vehicle id="336" depart="235.20">
        <route edges="2:0 0:1 1:3"/>
    </vehicle>
    <vehicle id="338" depart="236.60">
        <route edges="8:2 2:0"/>
    </vehicle>
    <vehicle id="339" depart="237.30">
        <route edges="8:2 2:0 0:1 1:3"/>
    </vehicle>
    <vehicle id="342" depart="239.40">
        <route edges="5:1 1:0 0:2 2:8"/>
    </vehicle>
    <vehicle id="344" depart="240.80">
        <route edges="1:3 3:7"/>
    </vehicle>
    <vehicle id="346" depart="242.20">
        <route edges="7:3 3:1 1:0 0:2"/>
    </vehicle>
    <vehicle id="348" depart="243.60">
        <route edges="0:2 2:8"/>
    </vehicle>
    <vehicle id="352" depart="246.40">
        <route edges="9:0 0:1 1:3 3:7"/>
    </vehicle>
    <vehicle id="358" depart="250.60">
        <route edges="2:0 0:9 9:10"/>
    </vehicle>
    <vehicle id="361" depart="252.70">
        <route edges="10:9 9:0 0:1 1:3"/>
    </vehicle>
    <vehicle id="363" depart="254.10">
        <route edges="7:3 3:1 1:0 0:2"/>
    </vehicle>
    <vehicle id="364" depart="254.80">
        <route edges="5:1 1:0 0:9 9:10"/>
    </vehicle>
    <vehicle id="367" depart="256.90">
        <route edges="7:3 3:1 1:0 0:9"/>
    </vehicle>
    <vehicle id="368" depart="257.60">
        <route edges="0:2 2:8"/>
    </vehicle>
    <vehicle id="370" depart="259.00">
        <route edges="9:0"/>
    </vehicle>
    <vehicle id="371" depart="259.70">
        <route edges="1:0 0:9 9:10"/>
    </vehicle>
    <vehicle id="373" depart="261.10">
        <route edges="8:2 2:0"/>
    </vehicle>
    <vehicle id="374" depart="261.80">
        <route edges="7:3 3:1 1:0 0:2 2:8"/>
    </vehicle>
    <vehicle id="375" depart="262.50">
        <route edges="2:0 0:1 1:3 3:7"/>
    </vehicle>
    <vehicle id="377" depart="263.90">
        <route edges="3:1 1:0 0:9 9:10"/>
    </vehicle>
    <vehicle id="383" depart="268.10">
        <route edges="7:3 3:1 1:0 0:9"/>
    </vehicle>
    <vehicle id="385" depart="269.50">
        <route edges="7:3 3:1"/>
    </vehicle>
    <vehicle id="386" depart="270.20">
        <route edges="1:3 3:7"/>
    </vehicle>
    <vehicle id="389" depart="272.30">
        <route edges="8:2 2:0"/>
    </vehicle>
    <vehicle id="390" depart="273.00">
        <route edges="9:0 0:1 1:3"/>
    </vehicle>
    <vehicle id="393" depart="275.10">
        <route edges="7:3 3:1 1:5 5:6"/>
    </vehicle>
    <vehicle id="395" depart="276.50">
        <route edges="2:0 0:1 1:5 5:6"/>
    </vehicle>
    <vehicle id="399" depart="279.30">
        <route edges="6:5 5:1 1:3 3:7"/>
    </vehicle>
    <vehicle id="400" depart="280.00">
        <route edges="6:5 5:1 1:3 3:7"/>
    </vehicle>
    <vehicle id="401" depart="280.70">
        <route edges="8:2 2:0"/>
    </vehicle>
    <vehicle id="403" depart="282.10">
        <route edges="1:0 0:2 2:8"/>
    </vehicle>
    <vehicle id="405" depart="283.50">
        <route edges="7:3 3:1 1:5 5:6"/>
    </vehicle>
    <vehicle id="406" depart="284.20">
        <route edges="8:2 2:0 0:1 1:3 3:7"/>
    </vehicle>
    <vehicle id="412" depart="288.40">
        <route edges="2:0 0:1 1:3 3:7"/>
    </vehicle>
    <vehicle id="413" depart="289.10">
        <route edges="8:2 2:0 0:1 1:5"/>
    </vehicle>
    <vehicle id="415" depart="290.50">
        <route edges="8:2 2:0 0:1 1:5"/>
    </vehicle>
    <vehicle id="416" depart="291.20">
        <route edges="2:0 0:1 1:5"/>
    </vehicle>
    <vehicle id="419" depart="293.30">
        <route edges="2:0 0:1 1:3"/>
    </vehicle>
    <vehicle id="422" depart="295.40">
        <route edges="3:1 1:0 0:9 9:10"/>
    </vehicle>
    <vehicle id="423" depart="296.10">
        <route edges="3:1 1:0 0:9 9:10"/>
    </vehicle>
    <vehicle id="424" depart="296.80">
        <route edges="8:2 2:0 0:1 1:3 3:7"/>
    </vehicle>
    <vehicle id="425" depart="297.50">
        <route edges="7:3 3:1 1:5"/>
    </vehicle>
    <vehicle id="427" depart="298.90">
        <route edges="8:2 2:0 0:9"/>
    </vehicle>
    <vehicle id="428" depart="299.60">
        <route edges="8:2 2:0 0:1 1:3 3:7"/>
    </vehicle>
    <vehicle id="430" depart="301.00">
        <route edges="7:3 3:1 1:0 0:2 2:8"/>
    </vehicle>
    <vehicle id="431" depart="301.70">
        <route edges="6:5 5:1 1:0 0:2 2:8"/>
    </vehicle>
    <vehicle id="434" depart="303.80">
        <route edges="8:2 2:0 0:1 1:3"/>
    </vehicle>
    <vehicle id="437" depart="305.90">
        <route edges="10:9 9:0 0:1 1:3 3:7"/>
    </vehicle>
    <vehicle id="440" depart="308.00">
        <route edges="0:1 1:3 3:7"/>
    </vehicle>
    <vehicle id="441" depart="308.70">
        <route edges="2:0 0:1 1:5 5:6"/>
    </vehicle>
    <vehicle id="442" depart="309.40">
        <route edges="8:2 2:0 0:1 1:5 5:6"/>
    </vehicle>
    <vehicle id="443" depart="310.10">
        <route edges="6:5 5:1 1:0 0:2"/>
    </vehicle>
    <vehicle id="444" depart="310.80">
        <route edges="6:5 5:1 1:0 0:2"/>
    </vehicle>
    <vehicle id="446" depart="312.20">
        <route edges="0:2 2:8"/>
    </vehicle>
    <vehicle id="447" depart="312.90">
        <route edges="5:1"/>
    </vehicle>
    <vehicle id="450" depart="315.00">
        <route edges="6:5 5:1 1:3"/>
    </vehicle>
    <vehicle id="452" depart="316.40">
        <route edges="5:1"/>
    </vehicle>
    <vehicle id="453" depart="317.10">
        <route edges="7:3 3:1 1:0 0:2 2:8"/>
    </vehicle>
    <vehicle id="454" depart="317.80">
        <route edges="7:3 3:1 1:0 0:2 2:8"/>
    </vehicle>
    <vehicle id="457" depart="319.90">
        <route edges="7:3 3:1"/>
    </vehicle>
    <vehicle id="460" depart="322.00">
        <route edges="2:0 0:9"/>
    </vehicle>
    <vehicle id="461" depart="322.70">
        <route edges="8:2 2:0"/>
    </vehicle>
    <vehicle id="462" depart="323.40">
        <route edges="2:0 0:9 9:10"/>
    </vehicle>
    <vehicle id="467" depart="326.90">
        <route edges="8:2 2:0 0:1 1:3 3:7"/>
    </vehicle>
    <vehicle id="468" depart="327.60">
        <route edges="2:0 0:9 9:10"/>
    </vehicle>
    <vehicle id="472" depart="330.40">
        <route edges="8:2 2:0"/>
    </vehicle>
    <vehicle id="473" depart="331.10">
        <route edges="2:0 0:1 1:5 5:6"/>
    </vehicle>
    <vehicle id="474" depart="331.80">
        <route edges="3:1 1:0 0:2"/>
    </vehicle>
    <vehicle id="478" depart="334.60">
        <route edges="8:2 2:0 0:1 1:5 5:6"/>
    </vehicle>
    <vehicle id="480" depart="336.00">
        <route edges="0:2"/>
    </vehicle>
    <vehicle id="485" depart="339.50">
        <route edges="8:2 2:0 0:1 1:5 5:6"/>
    </vehicle>
    <vehicle id="486" depart="340.20">
        <route edges="7:3 3:1 1:0 0:2"/>
    </vehicle>
    <vehicle id="488" depart="341.60">
        <route edges="5:1 1:0 0:2"/>
    </vehicle>
    <vehicle id="490" depart="343.00">
        <route edges="6:5 5:1 1:3"/>
    </vehicle>
    <vehicle id="491" depart="343.70">
        <route edges="10:9 9:0 0:2 2:8"/>
    </vehicle>
    <vehicle id="496" depart="347.20">
        <route edges="10:9 9:0 0:2 2:8"/>
    </vehicle>
    <vehicle id="503" depart="352.10">
        <route edges="7:3 3:1 1:0 0:2"/>
    </vehicle>
    <vehicle id="504" depart="352.80">
        <route edges="6:5 5:1 1:0 0:2"/>
    </vehicle>
    <vehicle id="506" depart="354.20">
        <route edges="1:0 0:2"/>
    </vehicle>
    <vehicle id="507" depart="354.90">
        <route edges="7:3 3:1 1:0 0:2"/>
    </vehicle>
    <vehicle id="509" depart="356.30">
        <route edges="0:2 2:8"/>
    </vehicle>
    <vehicle id="510" depart="357.00">
        <route edges="2:0 0:1 1:5"/>
    </vehicle>
    <vehicle id="511" depart="357.70">
        <route edges="0:1 1:5 5:6"/>
    </vehicle>
    <vehicle id="512" depart="358.40">
        <route edges="0:1"/>
    </vehicle>
    <vehicle id="513" depart="359.10">
        <route edges="5:1 1:0 0:2 2:8"/>
    </vehicle>
    <vehicle id="514" depart="359.80">
        <route edges="8:2 2:0 0:1 1:3"/>
    </vehicle>
    <vehicle id="516" depart="361.20">
        <route edges="7:3 3:1 1:0"/>
    </vehicle>
    <vehicle id="517" depart="361.90">
        <route edges="7:3 3:1 1:5 5:6"/>
    </vehicle>
    <vehicle id="521" depart="364.70">
        <route edges="1:0 0:2 2:8"/>
    </vehicle>
    <vehicle id="523" depart="366.10">
        <route edges="7:3 3:1 1:5"/>
    </vehicle>
    <vehicle id="526" depart="368.20">
        <route edges="7:3 3:1 1:5"/>
    </vehicle>
    <vehicle id="528" depart="369.60">
        <route edges="9:0 0:1"/>
    </vehicle>
    <vehicle id="532" depart="372.40">
        <route edges="3:1"/>
    </vehicle>
    <vehicle id="533" depart="373.10">
        <route edges="7:3 3:1 1:0 0:9 9:10"/>
    </vehicle>
    <vehicle id="535" depart="374.50">
        <route edges="8:2 2:0 0:1"/>
    </vehicle>
    <vehicle id="537" depart="375.90">
        <route edges="8:2 2:0 0:1 1:5 5:6"/>
    </vehicle>
    <vehicle id="538" depart="376.60">
        <route edges="5:1 1:3"/>
    </vehicle>
    <vehicle id="539" depart="377.30">
        <route edges="2:0"/>
    </vehicle>
    <vehicle id="541" depart="378.70">
        <route edges="10:9 9:0 0:1 1:5"/>
    </vehicle>
    <vehicle id="542" depart="379.40">
        <route edges="7:3 3:1 1:0 0:2"/>
    </vehicle>
    <vehicle id="543" depart="380.10">
        <route edges="8:2 2:0 0:1 1:3 3:7"/>
    </vehicle>
    <vehicle id="548" depart="383.60">
        <route edges="6:5 5:1 1:3 3:7"/>
    </vehicle>
    <vehicle id="549" depart="384.30">
        <route edges="3:1 1:0 0:2"/>
    </vehicle>
    <vehicle id="551" depart="385.70">
        <route edges="6:5 5:1 1:3 3:7"/>
    </vehicle>
    <vehicle id="552" depart="386.40">
        <route edges="10:9 9:0 0:2"/>
    </vehicle>
    <vehicle id="554" depart="387.80">
        <route edges="7:3 3:1 1:0 0:2 2:8"/>
    </vehicle>
    <vehicle id="555" depart="388.50">
        <route edges="3:1"/>
    </vehicle>
    <vehicle id="557" depart="389.90">
        <route edges="7:3 3:1"/>
    </vehicle>
    <vehicle id="558" depart="390.60">
        <route edges="1:5"/>
    </vehicle>
    <vehicle id="560" depart="392.00">
        <route edges="8:2 2:0 0:1 1:3"/>
    </vehicle>
    <vehicle id="561" depart="392.70">
        <route edges="10:9 9:0 0:1 1:5"/>
    </vehicle>
    <vehicle id="567" depart="396.90">
        <route edges="0:2"/>
    </vehicle>
    <vehicle id="568" depart="397.60">
        <route edges="8:2 2:0 0:1 1:3 3:7"/>
    </vehicle>
    <vehicle id="570" depart="399.00">
        <route edges="7:3 3:1"/>
    </vehicle>
    <vehicle id="572" depart="400.40">
        <route edges="1:0 0:2 2:8"/>
    </vehicle>
    <vehicle id="573" depart="401.10">
        <route edges="8:2 2:0 0:1 1:3 3:7"/>
    </vehicle>
    <vehicle id="576" depart="403.20">
        <route edges="0:9 9:10"/>
    </vehicle>
    <vehicle id="578" depart="404.60">
        <route edges="7:3 3:1 1:0 0:2 2:8"/>
    </vehicle>
    <vehicle id="579" depart="405.30">
        <route edges="8:2 2:0 0:1 1:3 3:7"/>
    </vehicle>
    <vehicle id="581" depart="406.70">
        <route edges="7:3 3:1 1:5"/>
    </vehicle>
    <vehicle id="582" depart="407.40">
        <route edges="7:3 3:1 1:0 0:2 2:8"/>
    </vehicle>
    <vehicle id="587" depart="410.90">
        <route edges="10:9 9:0 0:2 2:8"/>
    </vehicle>
    <vehicle id="590" depart="413.00">
        <route edges="8:2 2:0 0:1 1:5"/>
    </vehicle>
    <vehicle id="591" depart="413.70">
        <route edges="7:3 3:1 1:0"/>
    </vehicle>
    <vehicle id="593" depart="415.10">
        <route edges="2:0 0:9 9:10"/>
    </vehicle>
    <vehicle id="597" depart="417.90">
        <route edges="10:9 9:0 0:1 1:3 3:7"/>
    </vehicle>
    <vehicle id="598" depart="418.60">
        <route edges="8:2 2:0"/>
    </vehicle>
    <vehicle id="608" depart="425.60">
        <route edges="7:3 3:1"/>
    </vehicle>
    <vehicle id="609" depart="426.30">
        <route edges="8:2 2:0 0:1 1:3 3:7"/>
    </vehicle>
    <vehicle id="610" depart="427.00">
        <route edges="7:3 3:1 1:0 0:9 9:10"/>
    </vehicle>
    <vehicle id="612" depart="428.40">
        <route edges="10:9 9:0 0:2"/>
    </vehicle>
    <vehicle id="614" depart="429.80">
        <route edges="7:3 3:1 1:0 0:2"/>
    </vehicle>
    <vehicle id="615" depart="430.50">
        <route edges="6:5 5:1"/>
    </vehicle>
    <vehicle id="618" depart="432.60">
        <route edges="8:2 2:0 0:9"/>
    </vehicle>
    <vehicle id="619" depart="433.30">
        <route edges="10:9 9:0 0:1 1:3"/>
    </vehicle>
    <vehicle id="621" depart="434.70">
        <route edges="3:1 1:0 0:2"/>
    </vehicle>
    <vehicle id="622" depart="435.40">
        <route edges="8:2 2:0 0:9 9:10"/>
    </vehicle>
    <vehicle id="623" depart="436.10">
        <route edges="8:2 2:0 0:1 1:5"/>
    </vehicle>
    <vehicle id="625" depart="437.50">
        <route edges="2:0 0:1 1:3 3:7"/>
    </vehicle>
    <vehicle id="626" depart="438.20">
        <route edges="3:1"/>
    </vehicle>
    <vehicle id="627" depart="438.90">
        <route edges="1:0 0:2 2:8"/>
    </vehicle>
    <vehicle id="629" depart="440.30">
        <route edges="1:0 0:2 2:8"/>
    </vehicle>
    <vehicle id="630" depart="441.00">
        <route edges="10:9 9:0 0:1 1:3 3:7"/>
    </vehicle>
    <vehicle id="631" depart="441.70">
        <route edges="8:2 2:0 0:1 1:3 3:7"/>
    </vehicle>
    <vehicle id="632" depart="442.40">