<?xml version="1.0" encoding="UTF-8"?>

<!-- generated on Thu Feb 13 14:14:59 2014 by SUMO duarouter Version 0.18.0
<?xml version="1.0" encoding="UTF-8"?>

<configuration xmlns:xsi="http://www.w3.org/2001/XMLSchema-instance" xsi:noNamespaceSchemaLocation="http://sumo.sf.net/xsd/duarouterConfiguration.xsd">

    <input>
        <net-file value="twinT.net.xml"/>
        <trip-files value="experimentos/twinT.p0.1.8.trips.xml"/>
    </input>

    <output>
        <output-file value="experimentos/twinT.p0.1.8.rou.xml"/>
    </output>

    <processing>
        <ignore-errors value="true"/>
    </processing>

    <random_number>
        <random value="true"/>
    </random_number>

</configuration>
-->

<routes xmlns:xsi="http://www.w3.org/2001/XMLSchema-instance" xsi:noNamespaceSchemaLocation="http://sumo.sf.net/xsd/routes_file.xsd">
    <vehicle id="5" depart="0.50">
        <route edges="5:1 1:3"/>
    </vehicle>
    <vehicle id="6" depart="0.60">
        <route edges="3:1 1:5 5:6"/>
    </vehicle>
    <vehicle id="7" depart="0.70">
        <route edges="0:2 2:8"/>
    </vehicle>
    <vehicle id="9" depart="0.90">
        <route edges="1:3 3:7"/>
    </vehicle>
    <vehicle id="10" depart="1.00">
        <route edges="3:1 1:0 0:2 2:8"/>
    </vehicle>
    <vehicle id="11" depart="1.10">
        <route edges="1:3"/>
    </vehicle>
    <vehicle id="12" depart="1.20">
        <route edges="10:9 9:0 0:1 1:3 3:7"/>
    </vehicle>
    <vehicle id="18" depart="1.80">
        <route edges="2:0"/>
    </vehicle>
    <vehicle id="21" depart="2.10">
        <route edges="0:1 1:3 3:7"/>
    </vehicle>
    <vehicle id="22" depart="2.20">
        <route edges="0:1"/>
    </vehicle>
    <vehicle id="23" depart="2.30">
        <route edges="8:2 2:0 0:9 9:10"/>
    </vehicle>
    <vehicle id="25" depart="2.50">
        <route edges="8:2 2:0"/>
    </vehicle>
    <vehicle id="30" depart="3.00">
        <route edges="3:1"/>
    </vehicle>
    <vehicle id="33" depart="3.30">
        <route edges="0:2"/>
    </vehicle>
    <vehicle id="34" depart="3.40">
        <route edges="0:1 1:5 5:6"/>
    </vehicle>
    <vehicle id="35" depart="3.50">
        <route edges="0:1 1:3 3:7"/>
    </vehicle>
    <vehicle id="36" depart="3.60">
        <route edges="5:1 1:0 0:9"/>
    </vehicle>
    <vehicle id="41" depart="4.10">
        <route edges="9:0 0:1 1:3 3:7"/>
    </vehicle>
    <vehicle id="42" depart="4.20">
        <route edges="10:9 9:0 0:2"/>
    </vehicle>
    <vehicle id="45" depart="4.50">
        <route edges="0:2 2:8"/>
    </vehicle>
    <vehicle id="46" depart="4.60">
        <route edges="3:1 1:0 0:2 2:8"/>
    </vehicle>
    <vehicle id="47" depart="4.70">
        <route edges="7:3 3:1 1:0 0:2 2:8"/>
    </vehicle>
    <vehicle id="48" depart="4.80">
        <route edges="7:3 3:1 1:0 0:9"/>
    </vehicle>
    <vehicle id="50" depart="5.00">
        <route edges="7:3 3:1"/>
    </vehicle>
    <vehicle id="52" depart="5.20">
        <route edges="7:3 3:1 1:0 0:2 2:8"/>
    </vehicle>
    <vehicle id="53" depart="5.30">
        <route edges="5:1 1:3"/>
    </vehicle>
    <vehicle id="54" depart="5.40">
        <route edges="2:0 0:1 1:3"/>
    </vehicle>
    <vehicle id="55" depart="5.50">
        <route edges="6:5 5:1 1:0 0:2 2:8"/>
    </vehicle>
    <vehicle id="57" depart="5.70">
        <route edges="2:0 0:1"/>
    </vehicle>
    <vehicle id="58" depart="5.80">
        <route edges="8:2 2:0 0:9 9:10"/>
    </vehicle>
    <vehicle id="60" depart="6.00">
        <route edges="7:3 3:1 1:0 0:2 2:8"/>
    </vehicle>
    <vehicle id="61" depart="6.10">
        <route edges="9:0"/>
    </vehicle>
    <vehicle id="64" depart="6.40">
        <route edges="3:1 1:0 0:2 2:8"/>
    </vehicle>
    <vehicle id="67" depart="6.70">
        <route edges="1:0 0:9 9:10"/>
    </vehicle>
    <vehicle id="72" depart="7.20">
        <route edges="1:3 3:7"/>
    </vehicle>
    <vehicle id="73" depart="7.30">
        <route edges="5:1 1:3 3:7"/>
    </vehicle>
    <vehicle id="74" depart="7.40">
        <route edges="8:2 2:0 0:1 1:3"/>
    </vehicle>
    <vehicle id="76" depart="7.60">
        <route edges="7:3 3:1 1:0 0:9 9:10"/>
    </vehicle>
    <vehicle id="78" depart="7.80">
        <route edges="9:0 0:2"/>
    </vehicle>
    <vehicle id="81" depart="8.10">
        <route edges="10:9 9:0 0:1"/>
    </vehicle>
    <vehicle id="87" depart="8.70">
        <route edges="6:5 5:1 1:3 3:7"/>
    </vehicle>
    <vehicle id="88" depart="8.80">
        <route edges="3:1"/>
    </vehicle>
    <vehicle id="89" depart="8.90">
        <route edges="7:3 3:1 1:5 5:6"/>
    </vehicle>
    <vehicle id="90" depart="9.00">
        <route edges="7:3 3:1 1:0 0:2"/>
    </vehicle>
    <vehicle id="94" depart="9.40">
        <route edges="6:5 5:1 1:0 0:2"/>
    </vehicle>
    <vehicle id="96" depart="9.60">
        <route edges="6:5 5:1 1:0 0:2"/>
    </vehicle>
    <vehicle id="98" depart="9.80">
        <route edges="5:1 1:0 0:9 9:10"/>
    </vehicle>
    <vehicle id="100" depart="10.00">
        <route edges="3:1 1:0 0:2 2:8"/>
    </vehicle>
    <vehicle id="102" depart="10.20">
        <route edges="7:3 3:1 1:0 0:2 2:8"/>
    </vehicle>
    <vehicle id="107" depart="10.70">
        <route edges="5:1 1:3 3:7"/>
    </vehicle>
    <vehicle id="108" depart="10.80">
        <route edges="3:1 1:5 5:6"/>
    </vehicle>
    <vehicle id="111" depart="11.10">
        <route edges="0:2"/>
    </vehicle>
    <vehicle id="114" depart="11.40">
        <route edges="5:1"/>
    </vehicle>
    <vehicle id="115" depart="11.50">
        <route edges="2:0 0:1 1:3 3:7"/>
    </vehicle>
    <vehicle id="117" depart="11.70">
        <route edges="10:9 9:0 0:2"/>
    </vehicle>
    <vehicle id="118" depart="11.80">
        <route edges="1:3"/>
    </vehicle>
    <vehicle id="120" depart="12.00">
        <route edges="3:1 1:0 0:2 2:8"/>
    </vehicle>
    <vehicle id="122" depart="12.20">
        <route edges="2:0 0:9 9:10"/>
    </vehicle>
    <vehicle id="125" depart="12.50">
        <route edges="7:3 3:1"/>
    </vehicle>
    <vehicle id="126" depart="12.60">
        <route edges="7:3 3:1 1:0"/>
    </vehicle>
    <vehicle id="130" depart="13.00">
        <route edges="8:2 2:0 0:9 9:10"/>
    </vehicle>
    <vehicle id="131" depart="13.10">
        <route edges="3:1 1:0 0:2 2:8"/>
    </vehicle>
    <vehicle id="134" depart="13.40">
        <route edges="3:1 1:0 0:2"/>
    </vehicle>
    <vehicle id="136" depart="13.60">
        <route edges="8:2 2:0 0:9"/>
    </vehicle>
    <vehicle id="139" depart="13.90">
        <route edges="0:1 1:3"/>
    </vehicle>
    <vehicle id="140" depart="14.00">
        <route edges="8:2 2:0 0:1 1:5 5:6"/>
    </vehicle>
    <vehicle id="142" depart="14.20">
        <route edges="9:0 0:1 1:5 5:6"/>
    </vehicle>
    <vehicle id="143" depart="14.30">
        <route edges="6:5 5:1 1:3"/>
    </vehicle>
    <vehicle id="145" depart="14.50">
        <route edges="3:1 1:0"/>
    </vehicle>
    <vehicle id="146" depart="14.60">
        <route edges="7:3 3:1"/>
    </vehicle>
    <vehicle id="148" depart="14.80">
        <route edges="7:3 3:1 1:5 5:6"/>
    </vehicle>
    <vehicle id="150" depart="15.00">
        <route edges="2:0"/>
    </vehicle>
    <vehicle id="155" depart="15.50">
        <route edges="10:9 9:0 0:1 1:3 3:7"/>
    </vehicle>
    <vehicle id="156" depart="15.60">
        <route edges="5:1 1:0"/>
    </vehicle>
    <vehicle id="157" depart="15.70">
        <route edges="7:3 3:1"/>
    </vehicle>
    <vehicle id="160" depart="16.00">
        <route edges="1:3 3:7"/>
    </vehicle>
    <vehicle id="161" depart="16.10">
        <route edges="9:0 0:1 1:3 3:7"/>
    </vehicle>
    <vehicle id="162" depart="16.20">
        <route edges="2:0 0:1 1:5 5:6"/>
    </vehicle>
    <vehicle id="165" depart="16.50">
        <route edges="8:2 2:0 0:1 1:5 5:6"/>
    </vehicle>
    <vehicle id="169" depart="16.90">
        <route edges="8:2 2:0"/>
    </vehicle>
    <vehicle id="171" depart="17.10">
        <route edges="6:5 5:1 1:0"/>
    </vehicle>
    <vehicle id="174" depart="17.40">
        <route edges="0:2 2:8"/>
    </vehicle>
    <vehicle id="176" depart="17.60">
        <route edges="8:2 2:0 0:9"/>
    </vehicle>
    <vehicle id="179" depart="17.90">
        <route edges="8:2 2:0 0:1 1:3"/>
    </vehicle>
    <vehicle id="181" depart="18.10">
        <route edges="10:9 9:0 0:1 1:5 5:6"/>
    </vehicle>
    <vehicle id="182" depart="18.20">
        <route edges="7:3 3:1 1:5"/>
    </vehicle>
    <vehicle id="185" depart="18.50">
        <route edges="8:2 2:0 0:9"/>
    </vehicle>
    <vehicle id="186" depart="18.60">
        <route edges="8:2 2:0"/>
    </vehicle>
    <vehicle id="188" depart="18.80">
        <route edges="6:5 5:1 1:0 0:9 9:10"/>
    </vehicle>
    <vehicle id="190" depart="19.00">
        <route edges="3:1 1:5 5:6"/>
    </vehicle>
    <vehicle id="192" depart="19.20">
        <route edges="7:3 3:1 1:5"/>
    </vehicle>
    <vehicle id="193" depart="19.30">
        <route edges="5:1"/>
    </vehicle>
    <vehicle id="200" depart="20.00">
        <route edges="0:1"/>
    </vehicle>
    <vehicle id="207" depart="20.70">
        <route edges="1:0 0:9"/>
    </vehicle>
    <vehicle id="208" depart="20.80">
        <route edges="8:2 2:0 0:1"/>
    </vehicle>
    <vehicle id="210" depart="21.00">
        <route edges="9:0 0:2 2:8"/>
    </vehicle>
    <vehicle id="211" depart="21.10">
        <route edges="8:2 2:0 0:1"/>
    </vehicle>
    <vehicle id="213" depart="21.30">
        <route edges="7:3 3:1"/>
    </vehicle>
    <vehicle id="214" depart="21.40">
        <route edges="8:2 2:0 0:9"/>
    </vehicle>
    <vehicle id="215" depart="21.50">
        <route edges="6:5 5:1 1:0"/>
    </vehicle>
    <vehicle id="217" depart="21.70">
        <route edges="7:3 3:1 1:5"/>
    </vehicle>
    <vehicle id="219" depart="21.90">
        <route edges="6:5 5:1 1:0 0:2 2:8"/>
    </vehicle>
    <vehicle id="220" depart="22.00">
        <route edges="8:2 2:0 0:9"/>
    </vehicle>
    <vehicle id="222" depart="22.20">
        <route edges="1:3 3:7"/>
    </vehicle>
    <vehicle id="224" depart="22.40">
        <route edges="7:3 3:1 1:0 0:2"/>
    </vehicle>
    <vehicle id="225" depart="22.50">
        <route edges="1:3 3:7"/>
    </vehicle>
    <vehicle id="226" depart="22.60">
        <route edges="7:3 3:1 1:5 5:6"/>
    </vehicle>
    <vehicle id="227" depart="22.70">
        <route edges="7:3 3:1 1:0 0:2"/>
    </vehicle>
    <vehicle id="228" depart="22.80">
        <route edges="2:0 0:1 1:3 3:7"/>
    </vehicle>
    <vehicle id="229" depart="22.90">
        <route edges="2:0 0:1 1:3 3:7"/>
    </vehicle>
    <vehicle id="231" depart="23.10">
        <route edges="1:0 0:2 2:8"/>
    </vehicle>
    <vehicle id="232" depart="23.20">
        <route edges="7:3 3:1"/>
    </vehicle>
    <vehicle id="234" depart="23.40">
        <route edges="10:9 9:0 0:2"/>
    </vehicle>
    <vehicle id="235" depart="23.50">
        <route edges="2:0 0:9"/>
    </vehicle>
    <vehicle id="236" depart="23.60">
        <route edges="8:2 2:0 0:1 1:3"/>
    </vehicle>
    <vehicle id="237" depart="23.70">
        <route edges="5:1 1:0 0:2 2:8"/>
    </vehicle>
    <vehicle id="238" depart="23.80">
        <route edges="2:0 0:1 1:5 5:6"/>
    </vehicle>
    <vehicle id="240" depart="24.00">
        <route edges="8:2 2:0 0:1"/>
    </vehicle>
    <vehicle id="241" depart="24.10">
        <route edges="10:9 9:0 0:2 2:8"/>
    </vehicle>
    <vehicle id="243" depart="24.30">
        <route edges="8:2 2:0 0:9"/>
    </vehicle>
    <vehicle id="244" depart="24.40">
        <route edges="7:3 3:1 1:5"/>
    </vehicle>
    <vehicle id="245" depart="24.50">
        <route edges="1:3"/>
    </vehicle>
    <vehicle id="247" depart="24.70">
        <route edges="3:1 1:0"/>
    </vehicle>
    <vehicle id="248" depart="24.80">
        <route edges="3:1 1:0 0:9"/>
    </vehicle>
    <vehicle id="249" depart="24.90">
        <route edges="10:9 9:0 0:1 1:3"/>
    </vehicle>
    <vehicle id="253" depart="25.30">
        <route edges="8:2 2:0 0:1 1:3"/>
    </vehicle>
    <vehicle id="262" depart="26.20">
        <route edges="10:9 9:0 0:1 1:3 3:7"/>
    </vehicle>
    <vehicle id="265" depart="26.50">
        <route edges="5:1 1:0 0:2 2:8"/>
    </vehicle>
    <vehicle id="268" depart="26.80">
        <route edges="8:2 2:0 0:1 1:5 5:6"/>
    </vehicle>
    <vehicle id="269" depart="26.90">
        <route edges="9:0"/>
    </vehicle>
    <vehicle id="275" depart="27.50">
        <route edges="8:2 2:0 0:1 1:5 5:6"/>
    </vehicle>
    <vehicle id="277" depart="27.70">
        <route edges="2:0 0:1 1:5 5:6"/>
    </vehicle>
    <vehicle id="280" depart="28.00">
        <route edges="8:2 2:0 0:1 1:5"/>
    </vehicle>
    <vehicle id="281" depart="28.10">
        <route edges="8:2 2:0 0:1 1:5 5:6"/>
    </vehicle>
    <vehicle id="282" depart="28.20">
        <route edges="10:9 9:0 0:2 2:8"/>
    </vehicle>
    <vehicle id="283" depart="28.30">
        <route edges="5:1 1:0 0:9"/>
    </vehicle>
    <vehicle id="286" depart="28.60">
        <route edges="2:0 0:9 9:10"/>
    </vehicle>
    <vehicle id="291" depart="29.10">
        <route edges="7:3 3:1 1:0 0:2"/>
    </vehicle>
    <vehicle id="293" depart="29.30">
        <route edges="2:0 0:9 9:10"/>
    </vehicle>
    <vehicle id="294" depart="29.40">
        <route edges="0:1 1:5 5:6"/>
    </vehicle>
    <vehicle id="296" depart="29.60">
        <route edges="8:2 2:0 0:1 1:3"/>
    </vehicle>
    <vehicle id="298" depart="29.80">
        <route edges="0:9 9:10"/>
    </vehicle>
    <vehicle id="299" depart="29.90">
        <route edges="8:2 2:0 0:1 1:3 3:7"/>
    </vehicle>
    <vehicle id="301" depart="30.10">
        <route edges="6:5 5:1 1:0 0:2"/>
    </vehicle>
    <vehicle id="305" depart="30.50">
        <route edges="7:3 3:1 1:0 0:2"/>
    </vehicle>
    <vehicle id="306" depart="30.60">
        <route edges="5:1 1:0 0:9"/>
    </vehicle>
    <vehicle id="308" depart="30.80">
        <route edges="3:1 1:0 0:2 2:8"/>
    </vehicle>
    <vehicle id="310" depart="31.00">
        <route edges="10:9 9:0 0:1"/>
    </vehicle>
    <vehicle id="315" depart="31.50">
        <route edges="5:1 1:0 0:2 2:8"/>
    </vehicle>
    <vehicle id="316" depart="31.60">
        <route edges="8:2 2:0 0:1 1:3 3:7"/>
    </vehicle>
    <vehicle id="317" depart="31.70">
        <route edges="8:2 2:0 0:1 1:5 5:6"/>
    </vehicle>
    <vehicle id="319" depart="31.90">
        <route edges="7:3 3:1 1:0"/>
    </vehicle>
    <vehicle id="321" depart="32.10">
        <route edges="10:9 9:0 0:1"/>
    </vehicle>
    <vehicle id="323" depart="32.30">
        <route edges="0:2 2:8"/>
    </vehicle>
    <vehicle id="324" depart="32.40">
        <route edges="1:3 3:7"/>
    </vehicle>
    <vehicle id="325" depart="32.50">
        <route edges="7:3 3:1 1:5 5:6"/>
    </vehicle>
    <vehicle id="328" depart="32.80">
        <route edges="8:2 2:0 0:9 9:10"/>
    </vehicle>
    <vehicle id="330" depart="33.00">
        <route edges="3:1 1:5 5:6"/>
    </vehicle>
    <vehicle id="332" depart="33.20">
        <route edges="2:0 0:1 1:5 5:6"/>
    </vehicle>
    <vehicle id="336" depart="33.60">
        <route edges="9:0 0:2 2:8"/>
    </vehicle>
    <vehicle id="339" depart="33.90">
        <route edges="2:0 0:9"/>
    </vehicle>
    <vehicle id="340" depart="34.00">
        <route edges="5:1 1:0 0:2"/>
    </vehicle>
    <vehicle id="341" depart="34.10">
        <route edges="0:1 1:5 5:6"/>
    </vehicle>
    <vehicle id="342" depart="34.20">
        <route edges="10:9 9:0 0:1 1:3"/>
    </vehicle>
    <vehicle id="344" depart="34.40">
        <route edges="6:5 5:1 1:0 0:2 2:8"/>
    </vehicle>
    <vehicle id="346" depart="34.60">
        <route edges="10:9 9:0 0:1 1:3 3:7"/>
    </vehicle>
    <vehicle id="348" depart="34.80">
        <route edges="1:3 3:7"/>
    </vehicle>
    <vehicle id="354" depart="35.40">
        <route edges="2:0 0:1 1:3 3:7"/>
    </vehicle>
    <vehicle id="358" depart="35.80">
        <route edges="7:3 3:1 1:5"/>
    </vehicle>
    <vehicle id="361" depart="36.10">
        <route edges="8:2 2:0 0:1 1:5 5:6"/>
    </vehicle>
    <vehicle id="362" depart="36.20">
        <route edges="6:5 5:1 1:0 0:2 2:8"/>
    </vehicle>
    <vehicle id="365" depart="36.50">
        <route edges="5:1 1:3 3:7"/>
    </vehicle>
    <vehicle id="368" depart="36.80">
        <route edges="5:1 1:0 0:2 2:8"/>
    </vehicle>
    <vehicle id="369" depart="36.90">
        <route edges="8:2 2:0 0:1 1:5 5:6"/>
    </vehicle>
    <vehicle id="374" depart="37.40">
        <route edges="2:0 0:9"/>
    </vehicle>
    <vehicle id="376" depart="37.60">
        <route edges="7:3 3:1 1:5 5:6"/>
    </vehicle>
    <vehicle id="379" depart="37.90">
        <route edges="7:3 3:1 1:0 0:9"/>
    </vehicle>
    <vehicle id="383" depart="38.30">
        <route edges="7:3 3:1 1:5 5:6"/>
    </vehicle>
    <vehicle id="386" depart="38.60">
        <route edges="7:3 3:1 1:0 0:2 2:8"/>
    </vehicle>
    <vehicle id="389" depart="38.90">
        <route edges="0:2 2:8"/>
    </vehicle>
    <vehicle id="393" depart="39.30">
        <route edges="8:2 2:0 0:1 1:3 3:7"/>
    </vehicle>
    <vehicle id="394" depart="39.40">
        <route edges="8:2 2:0"/>
    </vehicle>
    <vehicle id="395" depart="39.50">
        <route edges="8:2 2:0 0:1 1:3"/>
    </vehicle>
    <vehicle id="396" depart="39.60">
        <route edges="8:2 2:0 0:1 1:3 3:7"/>
    </vehicle>
    <vehicle id="397" depart="39.70">
        <route edges="1:3"/>
    </vehicle>
    <vehicle id="400" depart="40.00">
        <route edges="5:1 1:0 0:9 9:10"/>
    </vehicle>
    <vehicle id="403" depart="40.30">
        <route edges="6:5 5:1 1:0 0:9"/>
    </vehicle>
    <vehicle id="405" depart="40.50">
        <route edges="5:1 1:3 3:7"/>
    </vehicle>
    <vehicle id="406" depart="40.60">
        <route edges="2:0 0:9 9:10"/>
    </vehicle>
    <vehicle id="407" depart="40.70">
        <route edges="8:2 2:0 0:1 1:3 3:7"/>
    </vehicle>
    <vehicle id="409" depart="40.90">
        <route edges="3:1 1:0 0:9 9:10"/>
    </vehicle>
    <vehicle id="410" depart="41.00">
        <route edges="5:1 1:0 0:9 9:10"/>
    </vehicle>
    <vehicle id="412" depart="41.20">
        <route edges="10:9 9:0 0:1 1:3 3:7"/>
    </vehicle>
    <vehicle id="413" depart="41.30">
        <route edges="10:9 9:0 0:1 1:5 5:6"/>
    </vehicle>
    <vehicle id="415" depart="41.50">
        <route edges="1:0 0:2"/>
    </vehicle>
    <vehicle id="416" depart="41.60">
        <route edges="8:2 2:0"/>
    </vehicle>
    <vehicle id="417" depart="41.70">
        <route edges="8:2 2:0 0:1 1:3 3:7"/>
    </vehicle>
    <vehicle id="419" depart="41.90">
        <route edges="3:1 1:0 0:9 9:10"/>
    </vehicle>
    <vehicle id="420" depart="42.00">
        <route edges="8:2 2:0 0:1 1:5 5:6"/>
    </vehicle>
    <vehicle id="422" depart="42.20">
        <route edges="0:2"/>
    </vehicle>
    <vehicle id="425" depart="42.50">
        <route edges="7:3 3:1 1:0 0:9"/>
    </vehicle>
    <vehicle id="426" depart="42.60">
        <route edges="0:1 1:3 3:7"/>
    </vehicle>
    <vehicle id="429" depart="42.90">
        <route edges="3:1"/>
    </vehicle>
    <vehicle id="430" depart="43.00">
        <route edges="1:0 0:2"/>
    </vehicle>
    <vehicle id="431" depart="43.10">
        <route edges="7:3 3:1 1:0 0:2 2:8"/>
    </vehicle>
    <vehicle id="433" depart="43.30">
        <route edges="7:3 3:1"/>
    </vehicle>
    <vehicle id="434" depart="43.40">
        <route edges="2:0 0:1 1:3 3:7"/>
    </vehicle>
    <vehicle id="436" depart="43.60">
        <route edges="7:3 3:1"/>
    </vehicle>
    <vehicle id="438" depart="43.80">
        <route edges="2:0 0:1 1:3 3:7"/>
    </vehicle>
    <vehicle id="440" depart="44.00">
        <route edges="7:3 3:1"/>
    </vehicle>
    <vehicle id="442" depart="44.20">
        <route edges="0:1 1:3"/>
    </vehicle>
    <vehicle id="443" depart="44.30">
        <route edges="2:0 0:9"/>
    </vehicle>
    <vehicle id="447" depart="44.70">
        <route edges="8:2 2:0 0:1 1:3 3:7"/>
    </vehicle>
    <vehicle id="449" depart="44.90">
        <route edges="8:2 2:0 0:1 1:3 3:7"/>
    </vehicle>
    <vehicle id="450" depart="45.00">
        <route edges="8:2 2:0 0:1 1:3 3:7"/>
    </vehicle>
    <vehicle id="451" depart="45.10">
        <route edges="2:0 0:1 1:5 5:6"/>
    </vehicle>
    <vehicle id="452" depart="45.20">
        <route edges="5:1 1:0"/>
    </vehicle>
    <vehicle id="454" depart="45.40">
        <route edges="8:2 2:0"/>
    </vehicle>
    <vehicle id="456" depart="45.60">
        <route edges="7:3 3:1 1:0 0:2 2:8"/>
    </vehicle>
    <vehicle id="457" depart="45.70">
        <route edges="5:1 1:3 3:7"/>
    </vehicle>
    <vehicle id="460" depart="46.00">
        <route edges="0:2"/>
    </vehicle>
    <vehicle id="461" depart="46.10">
        <route edges="10:9 9:0 0:1 1:5 5:6"/>
    </vehicle>
    <vehicle id="462" depart="46.20">
        <route edges="0:2"/>
    </vehicle>
    <vehicle id="463" depart="46.30">
        <route edges="7:3 3:1 1:0 0:2 2:8"/>
    </vehicle>
    <vehicle id="465" depart="46.50">
        <route edges="6:5 5:1 1:0 0:2 2:8"/>
    </vehicle>
    <vehicle id="468" depart="46.80">
        <route edges="0:1 1:3 3:7"/>
    </vehicle>
    <vehicle id="469" depart="46.90">
        <route edges="8:2 2:0 0:9 9:10"/>
    </vehicle>
    <vehicle id="470" depart="47.00">
        <route edges="8:2 2:0 0:1 1:3 3:7"/>
    </vehicle>
    <vehicle id="472" depart="47.20">
        <route edges="6:5 5:1 1:0 0:9 9:10"/>
    </vehicle>
    <vehicle id="475" depart="47.50">
        <route edges="3:1 1:0 0:2 2:8"/>
    </vehicle>
    <vehicle id="479" depart="47.90">
        <route edges="0:2"/>
    </vehicle>
    <vehicle id="480" depart="48.00">
        <route edges="2:0 0:9 9:10"/>
    </vehicle>
    <vehicle id="481" depart="48.10">
        <route edges="10:9 9:0"/>
    </vehicle>
    <vehicle id="482" depart="48.20">
        <route edges="9:0 0:2 2:8"/>
    </vehicle>
    <vehicle id="485" depart="48.50">
        <route edges="10:9 9:0 0:1"/>
    </vehicle>
    <vehicle id="486" depart="48.60">
        <route edges="3:1 1:0 0:2 2:8"/>
    </vehicle>
    <vehicle id="487" depart="48.70">
        <route edges="8:2 2:0 0:1 1:5"/>
    </vehicle>
    <vehicle id="488" depart="48.80">
        <route edges="10:9 9:0 0:1 1:3 3:7"/>
    </vehicle>
    <vehicle id="490" depart="49.00">
        <route edges="7:3 3:1"/>
    </vehicle>
    <vehicle id="491" depart="49.10">
        <route edges="8:2 2:0 0:1"/>
    </vehicle>
    <vehicle id="492" depart="49.20">
        <route edges="2:0 0:1"/>
    </vehicle>
    <vehicle id="493" depart="49.30">
        <route edges="7:3 3:1 1:0 0:2 2:8"/>
    </vehicle>
    <vehicle id="494" depart="49.40">
        <route edges="1:3 3:7"/>
    </vehicle>
    <vehicle id="495" depart="49.50">
        <route edges="2:0"/>
    </vehicle>
    <vehicle id="496" depart="49.60">
        <route edges="1:0 0:2 2:8"/>
    </vehicle>
    <vehicle id="498" depart="49.80">
        <route edges="8:2 2:0"/>
    </vehicle>
    <vehicle id="499" depart="49.90">
        <route edges="7:3 3:1 1:0 0:2 2:8"/>
    </vehicle>
    <vehicle id="500" depart="50.00">
        <route edges="8:2 2:0 0:1"/>
    </vehicle>
    <vehicle id="501" depart="50.10">
        <route edges="8:2 2:0 0:1"/>
    </vehicle>
    <vehicle id="503" depart="50.30">
        <route edges="7:3 3:1 1:0 0:9 9:10"/>
    </vehicle>
    <vehicle id="505" depart="50.50">
        <route edges="8:2 2:0 0:1 1:5"/>
    </vehicle>
    <vehicle id="508" depart="50.80">
        <route edges="8:2 2:0"/>
    </vehicle>
    <vehicle id="509" depart="50.90">
        <route edges="0:2"/>
    </vehicle>
    <vehicle id="510" depart="51.00">
        <route edges="8:2 2:0 0:9 9:10"/>
    </vehicle>
    <vehicle id="512" depart="51.20">
        <route edges="9:0 0:1 1:3 3:7"/>
    </vehicle>
    <vehicle id="517" depart="51.70">
        <route edges="0:2 2:8"/>
    </vehicle>
    <vehicle id="518" depart="51.80">
        <route edges="7:3 3:1 1:0 0:9"/>
    </vehicle>
    <vehicle id="519" depart="51.90">
        <route edges="1:0 0:2"/>
    </vehicle>
    <vehicle id="520" depart="52.00">
        <route edges="0:1 1:5"/>
    </vehicle>
    <vehicle id="522" depart="52.20">
        <route edges="8:2 2:0 0:1 1:3"/>
    </vehicle>
    <vehicle id="523" depart="52.30">
        <route edges="5:1 1:0 0:2 2:8"/>
    </vehicle>
    <vehicle id="524" depart="52.40">
        <route edges="7:3 3:1 1:0 0:9 9:10"/>
    </vehicle>
    <vehicle id="525" depart="52.50">
        <route edges="1:0 0:2 2:8"/>
    </vehicle>
    <vehicle id="526" depart="52.60">
        <route edges="8:2 2:0 0:1 1:3 3:7"/>
    </vehicle>
    <vehicle id="527" depart="52.70">
        <route edges="5:1 1:0 0:2"/>
    </vehicle>
    <vehicle id="528" depart="52.80">
        <route edges="7:3 3:1 1:5 5:6"/>
    </vehicle>
    <vehicle id="529" depart="52.90">
        <route edges="1:3"/>
    </vehicle>
    <vehicle id="536" depart="53.60">
        <route edges="3:1 1:0 0:2"/>
    </vehicle>
    <vehicle id="538" depart="53.80">
        <route edges="1:0 0:9 9:10"/>
    </vehicle>
    <vehicle id="541" depart="54.10">
        <route edges="0:2"/>
    </vehicle>
    <vehicle id="542" depart="54.20">
        <route edges="2:0 0:1 1:3 3:7"/>
    </vehicle>
    <vehicle id="543" depart="54.30">
        <route edges="1:3 3:7"/>
    </vehicle>
    <vehicle id="548" depart="54.80">
        <route edges="3:1 1:5"/>
    </vehicle>
    <vehicle id="549" depart="54.90">
        <route edges="8:2 2:0 0:9 9:10"/>
    </vehicle>
    <vehicle id="550" depart="55.00">
        <route edges="8:2 2:0 0:1 1:3"/>
    </vehicle>
    <vehicle id="553" depart="55.30">
        <route edges="8:2 2:0"/>
    </vehicle>
    <vehicle id="554" depart="55.40">
        <route edges="10:9 9:0 0:2 2:8"/>
    </vehicle>
    <vehicle id="556" depart="55.60">
        <route edges="8:2 2:0 0:1 1:5 5:6"/>
    </vehicle>
    <vehicle id="557" depart="55.70">
        <route edges="3:1 1:5"/>
    </vehicle>
    <vehicle id="558" depart="55.80">
        <route edges="0:2 2:8"/>
    </vehicle>
    <vehicle id="559" depart="55.90">
        <route edges="9:0 0:2 2:8"/>
    </vehicle>
    <vehicle id="560" depart="56.00">
        <route edges="8:2 2:0"/>
    </vehicle>
    <vehicle id="561" depart="56.10">
        <route edges="9:0 0:1 1:3 3:7"/>
    </vehicle>
    <vehicle id="567" depart="56.70">
        <route edges="5:1 1:0 0:9 9:10"/>
    </vehicle>
    <vehicle id="571" depart="57.10">
        <route edges="1:0 0:2 2:8"/>
    </vehicle>
    <vehicle id="572" depart="57.20">
        <route edges="6:5 5:1 1:0 0:2 2:8"/>
    </vehicle>
    <vehicle id="573" depart="57.30">
        <route edges="5:1 1:0 0:2 2:8"/>
    </vehicle>
    <vehicle id="576" depart="57.60">
        <route edges="3:1 1:0 0:2"/>
    </vehicle>
    <vehicle id="577" depart="57.70">
        <route edges="7:3 3:1"/>
    </vehicle>
    <vehicle id="578" depart="57.80">
        <route edges="10:9 9:0 0:1 1:5"/>
    </vehicle>
    <vehicle id="579" depart="57.90">
        <route edges="10:9 9:0 0:1 1:5 5:6"/>
    </vehicle>
    <vehicle id="580" depart="58.00">
        <route edges="0:1 1:5 5:6"/>
    </vehicle>
    <vehicle id="581" depart="58.10">
        <route edges="2:0 0:1"/>
    </vehicle>
    <vehicle id="582" depart="58.20">
        <route edges="0:1 1:3"/>
    </vehicle>
    <vehicle id="585" depart="58.50">
        <route edges="8:2 2:0 0:1 1:3 3:7"/>
    </vehicle>
    <vehicle id="589" depart="58.90">
        <route edges="8:2 2:0 0:9"/>
    </vehicle>
    <vehicle id="590" depart="59.00">
        <route edges="8:2 2:0"/>
    </vehicle>
    <vehicle id="591" depart="59.10">
        <route edges="1:0 0:2 2:8"/>
    </vehicle>
    <vehicle id="594" depart="59.40">
        <route edges="8:2 2:0 0:1 1:3"/>
    </vehicle>
    <vehicle id="596" depart="59.60">
        <route edges="0:1 1:3 3:7"/>
    </vehicle>
    <vehicle id="598" depart="59.80">
        <route edges="10:9 9:0 0:1 1:3 3:7"/>
    </vehicle>
    <vehicle id="600" depart="60.00">
        <route edges="3:1 1:0 0:2"/>
    </vehicle>
    <vehicle id="601" depart="60.10">
        <route edges="9:0 0:1 1:5 5:6"/>
    </vehicle>
    <vehicle id="602" depart="60.20">
        <route edges="3:1 1:0 0:9 9:10"/>
    </vehicle>
    <vehicle id="603" depart="60.30">
        <route edges="10:9 9:0 0:2 2:8"/>
    </vehicle>
    <vehicle id="604" depart="60.40">
        <route edges="8:2 2:0 0:1 1:5"/>
    </vehicle>
    <vehicle id="606" depart="60.60">
        <route edges="9:0 0:1 1:3 3:7"/>
    </vehicle>
    <vehicle id="607" depart="60.70">
        <route edges="7:3 3:1"/>
    </vehicle>
    <vehicle id="617" depart="61.70">
        <route edges="6:5 5:1 1:3"/>
    </vehicle>
    <vehicle id="623" depart="62.30">
        <route edges="8:2 2:0 0:1 1:3"/>
    </vehicle>
    <vehicle id="624" depart="62.40">
        <route edges="8:2 2:0 0:1 1:3 3:7"/>
    </vehicle>
    <vehicle id="628" depart="62.80">
        <route edges="2:0 0:1 1:3"/>
    </vehicle>
    <vehicle id="630" depart="63.00">
        <route edges="10:9 9:0 0:1 1:3"/>
    </vehicle>
    <vehicle id="631" depart="63.10">
        <route edges="3:1 1:0 0:9"/>
    </vehicle>
    <vehicle id="632" depart="63.20">
        <route edges="8:2 2:0"/>
    </vehicle>
    <vehicle id="633" depart="63.30">
        <route edges="8:2 2:0 0:1 1:3 3:7"/>
    </vehicle>
    <vehicle id="634" depart="63.40">
        <route edges="8:2 2:0 0:9"/>
    </vehicle>
    <vehicle id="636" depart="63.60">
        <route edges="10:9 9:0 0:1 1:5 5:6"/>
    </vehicle>
    <vehicle id="640" depart="64.00">
        <route edges="5:1 1:0 0:9 9:10"/>
    </vehicle>
    <vehicle id="643" depart="64.30">
        <route edges="8:2 2:0 0:9 9:10"/>
    </vehicle>
    <vehicle id="646" depart="64.60">