<?xml version="1.0" encoding="UTF-8"?>

<!-- generated on Thu Feb 13 14:16:33 2014 by SUMO duarouter Version 0.18.0
<?xml version="1.0" encoding="UTF-8"?>

<configuration xmlns:xsi="http://www.w3.org/2001/XMLSchema-instance" xsi:noNamespaceSchemaLocation="http://sumo.sf.net/xsd/duarouterConfiguration.xsd">

    <input>
        <net-file value="twinT.net.xml"/>
        <trip-files value="experimentos/twinT.p1.0.6.trips.xml"/>
    </input>

    <output>
        <output-file value="experimentos/twinT.p1.0.6.rou.xml"/>
    </output>

    <processing>
        <ignore-errors value="true"/>
    </processing>

    <random_number>
        <random value="true"/>
    </random_number>

</configuration>
-->

<routes xmlns:xsi="http://www.w3.org/2001/XMLSchema-instance" xsi:noNamespaceSchemaLocation="http://sumo.sf.net/xsd/routes_file.xsd">
    <vehicle id="1" depart="1.00">
        <route edges="2:0"/>
    </vehicle>
    <vehicle id="6" depart="6.00">
        <route edges="0:2 2:8"/>
    </vehicle>
    <vehicle id="7" depart="7.00">
        <route edges="8:2 2:0 0:1 1:3 3:7"/>
    </vehicle>
    <vehicle id="8" depart="8.00">
        <route edges="1:3 3:7"/>
    </vehicle>
    <vehicle id="10" depart="10.00">
        <route edges="7:3 3:1 1:0 0:2 2:8"/>
    </vehicle>
    <vehicle id="11" depart="11.00">
        <route edges="3:1 1:5 5:6"/>
    </vehicle>
    <vehicle id="14" depart="14.00">
        <route edges="3:1 1:0"/>
    </vehicle>
    <vehicle id="16" depart="16.00">
        <route edges="7:3 3:1 1:0 0:2 2:8"/>
    </vehicle>
    <vehicle id="19" depart="19.00">
        <route edges="2:0 0:1 1:3 3:7"/>
    </vehicle>
    <vehicle id="21" depart="21.00">
        <route edges="7:3 3:1"/>
    </vehicle>
    <vehicle id="23" depart="23.00">
        <route edges="3:1 1:0 0:2 2:8"/>
    </vehicle>
    <vehicle id="25" depart="25.00">
        <route edges="3:1 1:0 0:2 2:8"/>
    </vehicle>
    <vehicle id="27" depart="27.00">
        <route edges="6:5 5:1 1:3 3:7"/>
    </vehicle>
    <vehicle id="28" depart="28.00">
        <route edges="1:0 0:2 2:8"/>
    </vehicle>
    <vehicle id="33" depart="33.00">
        <route edges="1:3 3:7"/>
    </vehicle>
    <vehicle id="34" depart="34.00">
        <route edges="6:5 5:1 1:0 0:2 2:8"/>
    </vehicle>
    <vehicle id="37" depart="37.00">
        <route edges="10:9 9:0 0:2 2:8"/>
    </vehicle>
    <vehicle id="38" depart="38.00">
        <route edges="3:1 1:5 5:6"/>
    </vehicle>
    <vehicle id="39" depart="39.00">
        <route edges="9:0"/>
    </vehicle>
    <vehicle id="40" depart="40.00">
        <route edges="2:0 0:1 1:5"/>
    </vehicle>
    <vehicle id="41" depart="41.00">
        <route edges="7:3 3:1 1:0 0:2 2:8"/>
    </vehicle>
    <vehicle id="46" depart="46.00">
        <route edges="3:1 1:0 0:2 2:8"/>
    </vehicle>
    <vehicle id="49" depart="49.00">
        <route edges="8:2 2:0 0:1 1:3 3:7"/>
    </vehicle>
    <vehicle id="50" depart="50.00">
        <route edges="8:2 2:0 0:1"/>
    </vehicle>
    <vehicle id="51" depart="51.00">
        <route edges="8:2 2:0 0:9 9:10"/>
    </vehicle>
    <vehicle id="57" depart="57.00">
        <route edges="5:1 1:0 0:2 2:8"/>
    </vehicle>
    <vehicle id="59" depart="59.00">
        <route edges="3:1 1:0 0:9"/>
    </vehicle>
    <vehicle id="60" depart="60.00">
        <route edges="2:0 0:1 1:5 5:6"/>
    </vehicle>
    <vehicle id="61" depart="61.00">
        <route edges="8:2 2:0 0:1 1:3 3:7"/>
    </vehicle>
    <vehicle id="62" depart="62.00">
        <route edges="10:9 9:0 0:1"/>
    </vehicle>
    <vehicle id="63" depart="63.00">
        <route edges="2:0 0:1 1:3"/>
    </vehicle>
    <vehicle id="64" depart="64.00">
        <route edges="8:2 2:0"/>
    </vehicle>
    <vehicle id="65" depart="65.00">
        <route edges="7:3 3:1 1:0 0:2 2:8"/>
    </vehicle>
    <vehicle id="66" depart="66.00">
        <route edges="2:0 0:1 1:5"/>
    </vehicle>
    <vehicle id="67" depart="67.00">
        <route edges="6:5 5:1 1:0"/>
    </vehicle>
    <vehicle id="70" depart="70.00">
        <route edges="6:5 5:1 1:3 3:7"/>
    </vehicle>
    <vehicle id="71" depart="71.00">
        <route edges="2:0 0:1 1:3 3:7"/>
    </vehicle>
    <vehicle id="72" depart="72.00">
        <route edges="7:3 3:1 1:5 5:6"/>
    </vehicle>
    <vehicle id="73" depart="73.00">
        <route edges="3:1 1:0 0:2 2:8"/>
    </vehicle>
    <vehicle id="74" depart="74.00">
        <route edges="7:3 3:1 1:0 0:2 2:8"/>
    </vehicle>
    <vehicle id="75" depart="75.00">
        <route edges="3:1 1:0"/>
    </vehicle>
    <vehicle id="76" depart="76.00">
        <route edges="8:2 2:0 0:1 1:3 3:7"/>
    </vehicle>
    <vehicle id="77" depart="77.00">
        <route edges="1:0 0:2 2:8"/>
    </vehicle>
    <vehicle id="79" depart="79.00">
        <route edges="2:0 0:9 9:10"/>
    </vehicle>
    <vehicle id="81" depart="81.00">
        <route edges="3:1 1:0 0:2 2:8"/>
    </vehicle>
    <vehicle id="82" depart="82.00">
        <route edges="7:3 3:1 1:0 0:2 2:8"/>
    </vehicle>
    <vehicle id="84" depart="84.00">
        <route edges="7:3 3:1 1:0 0:9 9:10"/>
    </vehicle>
    <vehicle id="86" depart="86.00">
        <route edges="10:9 9:0 0:2 2:8"/>
    </vehicle>
    <vehicle id="88" depart="88.00">
        <route edges="3:1 1:0 0:2"/>
    </vehicle>
    <vehicle id="91" depart="91.00">
        <route edges="7:3 3:1 1:0"/>
    </vehicle>
    <vehicle id="92" depart="92.00">
        <route edges="9:0 0:1 1:3"/>
    </vehicle>
    <vehicle id="93" depart="93.00">
        <route edges="6:5 5:1 1:0 0:2"/>
    </vehicle>
    <vehicle id="94" depart="94.00">
        <route edges="6:5 5:1 1:0"/>
    </vehicle>
    <vehicle id="95" depart="95.00">
        <route edges="8:2 2:0"/>
    </vehicle>
    <vehicle id="98" depart="98.00">
        <route edges="0:2 2:8"/>
    </vehicle>
    <vehicle id="100" depart="100.00">
        <route edges="8:2 2:0 0:9"/>
    </vehicle>
    <vehicle id="102" depart="102.00">
        <route edges="0:2 2:8"/>
    </vehicle>
    <vehicle id="105" depart="105.00">
        <route edges="0:1 1:5 5:6"/>
    </vehicle>
    <vehicle id="108" depart="108.00">
        <route edges="1:0"/>
    </vehicle>
    <vehicle id="109" depart="109.00">
        <route edges="2:0 0:1 1:3 3:7"/>
    </vehicle>
    <vehicle id="111" depart="111.00">
        <route edges="8:2 2:0"/>
    </vehicle>
    <vehicle id="113" depart="113.00">
        <route edges="0:9 9:10"/>
    </vehicle>
    <vehicle id="116" depart="116.00">
        <route edges="8:2 2:0 0:1 1:3 3:7"/>
    </vehicle>
    <vehicle id="121" depart="121.00">
        <route edges="7:3 3:1 1:0"/>
    </vehicle>
    <vehicle id="122" depart="122.00">
        <route edges="0:2 2:8"/>
    </vehicle>
    <vehicle id="123" depart="123.00">
        <route edges="8:2 2:0 0:1 1:5"/>
    </vehicle>
    <vehicle id="126" depart="126.00">
        <route edges="3:1 1:5"/>
    </vehicle>
    <vehicle id="130" depart="130.00">
        <route edges="3:1"/>
    </vehicle>
    <vehicle id="132" depart="132.00">
        <route edges="8:2 2:0"/>
    </vehicle>
    <vehicle id="134" depart="134.00">
        <route edges="3:1 1:0 0:2 2:8"/>
    </vehicle>
    <vehicle id="136" depart="136.00">
        <route edges="7:3 3:1 1:0 0:9 9:10"/>
    </vehicle>
    <vehicle id="139" depart="139.00">
        <route edges="3:1 1:0 0:9"/>
    </vehicle>
    <vehicle id="140" depart="140.00">
        <route edges="2:0"/>
    </vehicle>
    <vehicle id="144" depart="144.00">
        <route edges="2:0 0:1 1:5"/>
    </vehicle>
    <vehicle id="145" depart="145.00">
        <route edges="1:0"/>
    </vehicle>
    <vehicle id="146" depart="146.00">
        <route edges="3:1 1:0 0:2 2:8"/>
    </vehicle>
    <vehicle id="147" depart="147.00">
        <route edges="1:0 0:2"/>
    </vehicle>
    <vehicle id="150" depart="150.00">
        <route edges="3:1 1:5"/>
    </vehicle>
    <vehicle id="152" depart="152.00">
        <route edges="0:2 2:8"/>
    </vehicle>
    <vehicle id="155" depart="155.00">
        <route edges="5:1 1:0 0:2"/>
    </vehicle>
    <vehicle id="158" depart="158.00">
        <route edges="7:3 3:1 1:0 0:9"/>
    </vehicle>
    <vehicle id="160" depart="160.00">
        <route edges="10:9 9:0 0:1 1:3 3:7"/>
    </vehicle>
    <vehicle id="161" depart="161.00">
        <route edges="3:1"/>
    </vehicle>
    <vehicle id="162" depart="162.00">
        <route edges="2:0 0:9"/>
    </vehicle>
    <vehicle id="166" depart="166.00">
        <route edges="8:2 2:0 0:1 1:3"/>
    </vehicle>
    <vehicle id="167" depart="167.00">
        <route edges="3:1 1:0 0:9"/>
    </vehicle>
    <vehicle id="169" depart="169.00">
        <route edges="8:2 2:0"/>
    </vehicle>
    <vehicle id="171" depart="171.00">
        <route edges="1:0 0:2"/>
    </vehicle>
    <vehicle id="172" depart="172.00">
        <route edges="8:2 2:0 0:9 9:10"/>
    </vehicle>
    <vehicle id="175" depart="175.00">
        <route edges="2:0"/>
    </vehicle>
    <vehicle id="179" depart="179.00">
        <route edges="9:0 0:2"/>
    </vehicle>
    <vehicle id="182" depart="182.00">
        <route edges="6:5 5:1 1:3"/>
    </vehicle>
    <vehicle id="183" depart="183.00">
        <route edges="1:3"/>
    </vehicle>
    <vehicle id="186" depart="186.00">
        <route edges="7:3 3:1 1:0 0:2 2:8"/>
    </vehicle>
    <vehicle id="188" depart="188.00">
        <route edges="3:1 1:0"/>
    </vehicle>
    <vehicle id="190" depart="190.00">
        <route edges="3:1 1:0 0:2 2:8"/>
    </vehicle>
    <vehicle id="192" depart="192.00">
        <route edges="8:2 2:0 0:1 1:5 5:6"/>
    </vehicle>
    <vehicle id="194" depart="194.00">
        <route edges="7:3 3:1"/>
    </vehicle>
    <vehicle id="195" depart="195.00">
        <route edges="1:0 0:9"/>
    </vehicle>
    <vehicle id="196" depart="196.00">
        <route edges="9:0 0:1"/>
    </vehicle>
    <vehicle id="200" depart="200.00">
        <route edges="8:2 2:0 0:9 9:10"/>
    </vehicle>
    <vehicle id="201" depart="201.00">
        <route edges="8:2 2:0"/>
    </vehicle>
    <vehicle id="203" depart="203.00">
        <route edges="8:2 2:0"/>
    </vehicle>
    <vehicle id="204" depart="204.00">
        <route edges="10:9 9:0 0:1 1:3"/>
    </vehicle>
    <vehicle id="205" depart="205.00">
        <route edges="3:1 1:0 0:2"/>
    </vehicle>
    <vehicle id="208" depart="208.00">
        <route edges="6:5 5:1 1:3 3:7"/>
    </vehicle>
    <vehicle id="209" depart="209.00">
        <route edges="7:3 3:1 1:0 0:2"/>
    </vehicle>
    <vehicle id="211" depart="211.00">
        <route edges="6:5 5:1 1:0 0:9"/>
    </vehicle>
    <vehicle id="212" depart="212.00">
        <route edges="8:2 2:0"/>
    </vehicle>
    <vehicle id="214" depart="214.00">
        <route edges="7:3 3:1 1:5"/>
    </vehicle>
    <vehicle id="215" depart="215.00">
        <route edges="8:2 2:0 0:1 1:3"/>
    </vehicle>
    <vehicle id="218" depart="218.00">
        <route edges="7:3 3:1 1:0 0:2"/>
    </vehicle>
    <vehicle id="220" depart="220.00">
        <route edges="2:0 0:1 1:5"/>
    </vehicle>
    <vehicle id="221" depart="221.00">
        <route edges="3:1 1:0 0:2 2:8"/>
    </vehicle>
    <vehicle id="223" depart="223.00">
        <route edges="8:2 2:0 0:1 1:3"/>
    </vehicle>
    <vehicle id="224" depart="224.00">
        <route edges="7:3 3:1 1:0"/>
    </vehicle>
    <vehicle id="227" depart="227.00">
        <route edges="10:9 9:0 0:2"/>
    </vehicle>
    <vehicle id="232" depart="232.00">
        <route edges="6:5 5:1 1:3 3:7"/>
    </vehicle>
    <vehicle id="234" depart="234.00">
        <route edges="6:5 5:1 1:0 0:9 9:10"/>
    </vehicle>
    <vehicle id="235" depart="235.00">
        <route edges="8:2 2:0 0:9 9:10"/>
    </vehicle>
    <vehicle id="236" depart="236.00">
        <route edges="8:2 2:0 0:1 1:3 3:7"/>
    </vehicle>
    <vehicle id="237" depart="237.00">
        <route edges="6:5 5:1 1:0"/>
    </vehicle>
    <vehicle id="238" depart="238.00">
        <route edges="8:2 2:0 0:9"/>
    </vehicle>
    <vehicle id="240" depart="240.00">
        <route edges="8:2 2:0"/>
    </vehicle>
    <vehicle id="243" depart="243.00">
        <route edges="7:3 3:1 1:0 0:2 2:8"/>
    </vehicle>
    <vehicle id="244" depart="244.00">
        <route edges="0:2 2:8"/>
    </vehicle>
    <vehicle id="245" depart="245.00">
        <route edges="1:3 3:7"/>
    </vehicle>
    <vehicle id="247" depart="247.00">
        <route edges="3:1 1:0 0:2 2:8"/>
    </vehicle>
    <vehicle id="250" depart="250.00">
        <route edges="0:1 1:3 3:7"/>
    </vehicle>
    <vehicle id="253" depart="253.00">
        <route edges="6:5 5:1 1:3"/>
    </vehicle>
    <vehicle id="254" depart="254.00">
        <route edges="3:1 1:0 0:2 2:8"/>
    </vehicle>
    <vehicle id="255" depart="255.00">
        <route edges="10:9 9:0 0:1 1:3"/>
    </vehicle>
    <vehicle id="261" depart="261.00">
        <route edges="0:1 1:3 3:7"/>
    </vehicle>
    <vehicle id="262" depart="262.00">
        <route edges="10:9 9:0 0:1 1:5 5:6"/>
    </vehicle>
    <vehicle id="263" depart="263.00">
        <route edges="9:0 0:1 1:3 3:7"/>
    </vehicle>
    <vehicle id="265" depart="265.00">
        <route edges="8:2 2:0 0:1"/>
    </vehicle>
    <vehicle id="266" depart="266.00">
        <route edges="9:0 0:2 2:8"/>
    </vehicle>
    <vehicle id="267" depart="267.00">
        <route edges="0:1 1:5"/>
    </vehicle>
    <vehicle id="269" depart="269.00">
        <route edges="6:5 5:1 1:3 3:7"/>
    </vehicle>
    <vehicle id="273" depart="273.00">
        <route edges="10:9 9:0 0:1 1:3 3:7"/>
    </vehicle>
    <vehicle id="275" depart="275.00">
        <route edges="5:1 1:0 0:2 2:8"/>
    </vehicle>
    <vehicle id="279" depart="279.00">
        <route edges="1:0 0:9 9:10"/>
    </vehicle>
    <vehicle id="284" depart="284.00">
        <route edges="7:3 3:1"/>
    </vehicle>
    <vehicle id="285" depart="285.00">
        <route edges="2:0 0:9 9:10"/>
    </vehicle>
    <vehicle id="286" depart="286.00">
        <route edges="6:5 5:1 1:3 3:7"/>
    </vehicle>
    <vehicle id="289" depart="289.00">
        <route edges="10:9 9:0 0:1 1:3 3:7"/>
    </vehicle>
    <vehicle id="291" depart="291.00">
        <route edges="3:1 1:0 0:2"/>
    </vehicle>
    <vehicle id="293" depart="293.00">
        <route edges="7:3 3:1 1:0 0:2 2:8"/>
    </vehicle>
    <vehicle id="296" depart="296.00">
        <route edges="6:5 5:1 1:0 0:9"/>
    </vehicle>
    <vehicle id="305" depart="305.00">
        <route edges="6:5 5:1 1:3"/>
    </vehicle>
    <vehicle id="308" depart="308.00">
        <route edges="0:1 1:3 3:7"/>
    </vehicle>
    <vehicle id="309" depart="309.00">
        <route edges="6:5 5:1 1:0 0:9 9:10"/>
    </vehicle>
    <vehicle id="313" depart="313.00">
        <route edges="7:3 3:1 1:0 0:9"/>
    </vehicle>
    <vehicle id="315" depart="315.00">
        <route edges="7:3 3:1"/>
    </vehicle>
    <vehicle id="316" depart="316.00">
        <route edges="8:2 2:0 0:9 9:10"/>
    </vehicle>
    <vehicle id="317" depart="317.00">
        <route edges="2:0 0:9 9:10"/>
    </vehicle>
    <vehicle id="319" depart="319.00">
        <route edges="3:1"/>
    </vehicle>
    <vehicle id="322" depart="322.00">
        <route edges="7:3 3:1 1:0 0:2 2:8"/>
    </vehicle>
    <vehicle id="324" depart="324.00">
        <route edges="7:3 3:1 1:0 0:2 2:8"/>
    </vehicle>
    <vehicle id="325" depart="325.00">
        <route edges="3:1 1:0 0:2 2:8"/>
    </vehicle>
    <vehicle id="328" depart="328.00">
        <route edges="7:3 3:1 1:0 0:2"/>
    </vehicle>
    <vehicle id="329" depart="329.00">
        <route edges="0:2 2:8"/>
    </vehicle>
    <vehicle id="331" depart="331.00">
        <route edges="8:2 2:0"/>
    </vehicle>
    <vehicle id="334" depart="334.00">
        <route edges="1:3 3:7"/>
    </vehicle>
    <vehicle id="335" depart="335.00">
        <route edges="8:2 2:0 0:1 1:5 5:6"/>
    </vehicle>
    <vehicle id="339" depart="339.00">
        <route edges="7:3 3:1 1:0 0:2"/>
    </vehicle>
    <vehicle id="342" depart="342.00">
        <route edges="1:3 3:7"/>
    </vehicle>
    <vehicle id="346" depart="346.00">
        <route edges="8:2 2:0 0:1"/>
    </vehicle>
    <vehicle id="347" depart="347.00">
        <route edges="7:3 3:1 1:0 0:2 2:8"/>
    </vehicle>
    <vehicle id="349" depart="349.00">
        <route edges="8:2 2:0 0:1 1:3"/>
    </vehicle>
    <vehicle id="350" depart="350.00">
        <route edges="7:3 3:1 1:0 0:2"/>
    </vehicle>
    <vehicle id="352" depart="352.00">
        <route edges="0:2"/>
    </vehicle>
    <vehicle id="354" depart="354.00">
        <route edges="3:1 1:0 0:9"/>
    </vehicle>
    <vehicle id="356" depart="356.00">
        <route edges="7:3 3:1 1:5 5:6"/>
    </vehicle>
    <vehicle id="357" depart="357.00">
        <route edges="0:9"/>
    </vehicle>
    <vehicle id="358" depart="358.00">
        <route edges="8:2 2:0 0:1 1:5 5:6"/>
    </vehicle>
    <vehicle id="360" depart="360.00">
        <route edges="6:5 5:1 1:0 0:2 2:8"/>
    </vehicle>
    <vehicle id="361" depart="361.00">
        <route edges="7:3 3:1 1:5 5:6"/>
    </vehicle>
    <vehicle id="363" depart="363.00">
        <route edges="2:0 0:9 9:10"/>
    </vehicle>
    <vehicle id="369" depart="369.00">
        <route edges="2:0 0:1 1:5 5:6"/>
    </vehicle>
    <vehicle id="370" depart="370.00">
        <route edges="7:3 3:1 1:0 0:2"/>
    </vehicle>
    <vehicle id="371" depart="371.00">
        <route edges="6:5 5:1 1:3"/>
    </vehicle>
    <vehicle id="376" depart="376.00">
        <route edges="7:3 3:1 1:0 0:2"/>
    </vehicle>
    <vehicle id="382" depart="382.00">
        <route edges="6:5 5:1 1:0 0:2"/>
    </vehicle>
    <vehicle id="387" depart="387.00">
        <route edges="8:2 2:0 0:1 1:3 3:7"/>
    </vehicle>
    <vehicle id="390" depart="390.00">
        <route edges="8:2 2:0 0:1 1:3 3:7"/>
    </vehicle>
    <vehicle id="391" depart="391.00">
        <route edges="10:9 9:0 0:1 1:3 3:7"/>
    </vehicle>
    <vehicle id="394" depart="394.00">
        <route edges="7:3 3:1 1:0 0:9 9:10"/>
    </vehicle>
    <vehicle id="396" depart="396.00">
        <route edges="10:9 9:0 0:1 1:5 5:6"/>
    </vehicle>
    <vehicle id="398" depart="398.00">
        <route edges="10:9 9:0 0:2 2:8"/>
    </vehicle>
    <vehicle id="400" depart="400.00">
        <route edges="2:0 0:1 1:3 3:7"/>
    </vehicle>
    <vehicle id="404" depart="404.00">
        <route edges="10:9 9:0 0:2 2:8"/>
    </vehicle>
    <vehicle id="405" depart="405.00">
        <route edges="0:2 2:8"/>
    </vehicle>
    <vehicle id="406" depart="406.00">
        <route edges="1:0 0:2"/>
    </vehicle>
    <vehicle id="408" depart="408.00">
        <route edges="6:5 5:1 1:3 3:7"/>
    </vehicle>
    <vehicle id="409" depart="409.00">
        <route edges="7:3 3:1 1:5"/>
    </vehicle>
    <vehicle id="412" depart="412.00">
        <route edges="1:3 3:7"/>
    </vehicle>
    <vehicle id="413" depart="413.00">
        <route edges="9:0 0:1 1:3 3:7"/>
    </vehicle>
    <vehicle id="414" depart="414.00">
        <route edges="0:2"/>
    </vehicle>
    <vehicle id="415" depart="415.00">
        <route edges="7:3 3:1 1:0 0:2"/>
    </vehicle>
    <vehicle id="416" depart="416.00">
        <route edges="3:1 1:0 0:2 2:8"/>
    </vehicle>
    <vehicle id="417" depart="417.00">
        <route edges="8:2 2:0 0:1 1:3"/>
    </vehicle>
    <vehicle id="420" depart="420.00">
        <route edges="0:2 2:8"/>
    </vehicle>
    <vehicle id="421" depart="421.00">
        <route edges="8:2 2:0 0:9 9:10"/>
    </vehicle>
    <vehicle id="424" depart="424.00">
        <route edges="5:1 1:0 0:2"/>
    </vehicle>
    <vehicle id="426" depart="426.00">
        <route edges="0:1 1:5 5:6"/>
    </vehicle>
    <vehicle id="428" depart="428.00">
        <route edges="8:2 2:0 0:1 1:3 3:7"/>
    </vehicle>
    <vehicle id="429" depart="429.00">
        <route edges="8:2 2:0 0:9"/>
    </vehicle>
    <vehicle id="431" depart="431.00">
        <route edges="9:0 0:1"/>
    </vehicle>
    <vehicle id="432" depart="432.00">
        <route edges="0:1"/>
    </vehicle>
    <vehicle id="434" depart="434.00">
        <route edges="8:2 2:0 0:1 1:5 5:6"/>
    </vehicle>
    <vehicle id="437" depart="437.00">
        <route edges="8:2 2:0 0:1 1:3"/>
    </vehicle>
    <vehicle id="439" depart="439.00">
        <route edges="3:1 1:0 0:2 2:8"/>
    </vehicle>
    <vehicle id="441" depart="441.00">
        <route edges="7:3 3:1 1:0 0:2"/>
    </vehicle>
    <vehicle id="443" depart="443.00">
        <route edges="6:5 5:1 1:0 0:9"/>
    </vehicle>
    <vehicle id="444" depart="444.00">
        <route edges="3:1 1:0 0:9"/>
    </vehicle>
    <vehicle id="445" depart="445.00">
        <route edges="8:2 2:0 0:1 1:3 3:7"/>
    </vehicle>
    <vehicle id="448" depart="448.00">
        <route edges="0:2 2:8"/>
    </vehicle>
    <vehicle id="449" depart="449.00">
        <route edges="3:1 1:0 0:2 2:8"/>
    </vehicle>
    <vehicle id="450" depart="450.00">
        <route edges="8:2 2:0 0:9 9:10"/>
    </vehicle>
    <vehicle id="451" depart="451.00">
        <route edges="9:0 0:1"/>
    </vehicle>
    <vehicle id="452" depart="452.00">
        <route edges="2:0"/>
    </vehicle>
    <vehicle id="453" depart="453.00">
        <route edges="1:3 3:7"/>
    </vehicle>
    <vehicle id="454" depart="454.00">
        <route edges="6:5 5:1 1:0 0:2"/>
    </vehicle>
    <vehicle id="455" depart="455.00">
        <route edges="10:9 9:0 0:1"/>
    </vehicle>
    <vehicle id="458" depart="458.00">
        <route edges="6:5 5:1 1:3"/>
    </vehicle>
    <vehicle id="460" depart="460.00">
        <route edges="8:2 2:0 0:9 9:10"/>
    </vehicle>
    <vehicle id="461" depart="461.00">
        <route edges="9:0 0:1 1:3 3:7"/>
    </vehicle>
    <vehicle id="462" depart="462.00">
        <route edges="1:0 0:9 9:10"/>
    </vehicle>
    <vehicle id="465" depart="465.00">
        <route edges="3:1 1:0 0:2 2:8"/>
    </vehicle>
    <vehicle id="467" depart="467.00">
        <route edges="6:5 5:1"/>
    </vehicle>
    <vehicle id="468" depart="468.00">
        <route edges="10:9 9:0 0:1 1:3 3:7"/>
    </vehicle>
    <vehicle id="469" depart="469.00">
        <route edges="7:3 3:1 1:5 5:6"/>
    </vehicle>
    <vehicle id="472" depart="472.00">
        <route edges="10:9 9:0 0:1 1:3 3:7"/>
    </vehicle>
    <vehicle id="474" depart="474.00">
        <route edges="0:2 2:8"/>
    </vehicle>
    <vehicle id="477" depart="477.00">
        <route edges="3:1 1:5"/>
    </vehicle>
    <vehicle id="481" depart="481.00">
        <route edges="8:2 2:0"/>
    </vehicle>
    <vehicle id="482" depart="482.00">
        <route edges="9:0 0:1 1:3 3:7"/>
    </vehicle>
    <vehicle id="483" depart="483.00">
        <route edges="10:9 9:0 0:1 1:5 5:6"/>
    </vehicle>
    <vehicle id="485" depart="485.00">
        <route edges="7:3 3:1 1:5 5:6"/>
    </vehicle>
    <vehicle id="486" depart="486.00">
        <route edges="6:5 5:1 1:3"/>
    </vehicle>
    <vehicle id="487" depart="487.00">
        <route edges="6:5 5:1 1:3 3:7"/>
    </vehicle>
    <vehicle id="490" depart="490.00">
        <route edges="8:2 2:0 0:1"/>
    </vehicle>
    <vehicle id="491" depart="491.00">
        <route edges="7:3 3:1 1:5"/>
    </vehicle>
    <vehicle id="492" depart="492.00">
        <route edges="10:9 9:0 0:1 1:3"/>
    </vehicle>
    <vehicle id="493" depart="493.00">
        <route edges="7:3 3:1"/>
    </vehicle>
    <vehicle id="494" depart="494.00">
        <route edges="1:0 0:2 2:8"/>
    </vehicle>
    <vehicle id="495" depart="495.00">
        <route edges="5:1 1:0 0:2"/>
    </vehicle>
    <vehicle id="501" depart="501.00">
        <route edges="3:1 1:0"/>
    </vehicle>
    <vehicle id="502" depart="502.00">
        <route edges="2:0 0:1 1:3"/>
    </vehicle>
    <vehicle id="506" depart="506.00">
        <route edges="8:2 2:0 0:9"/>
    </vehicle>
    <vehicle id="507" depart="507.00">
        <route edges="0:2"/>
    </vehicle>
    <vehicle id="508" depart="508.00">
        <route edges="0:1 1:3"/>
    </vehicle>
    <vehicle id="509" depart="509.00">
        <route edges="8:2 2:0"/>
    </vehicle>
    <vehicle id="510" depart="510.00">
        <route edges="1:5"/>
    </vehicle>
    <vehicle id="512" depart="512.00">
        <route edges="6:5 5:1 1:3"/>
    </vehicle>
    <vehicle id="513" depart="513.00">
        <route edges="0:1 1:3 3:7"/>
    </vehicle>
    <vehicle id="516" depart="516.00">
        <route edges="1:0 0:2 2:8"/>
    </vehicle>
    <vehicle id="519" depart="519.00">
        <route edges="8:2 2:0 0:1 1:3 3:7"/>
    </vehicle>
    <vehicle id="520" depart="520.00">
        <route edges="7:3 3:1"/>
    </vehicle>
    <vehicle id="523" depart="523.00">
        <route edges="8:2 2:0 0:1 1:3 3:7"/>
    </vehicle>
    <vehicle id="525" depart="525.00">
        <route edges="8:2 2:0"/>
    </vehicle>
    <vehicle id="527" depart="527.00">
        <route edges="5:1 1:0 0:9 9:10"/>
    </vehicle>
    <vehicle id="528" depart="528.00">
        <route edges="10:9 9:0 0:1 1:3 3:7"/>
    </vehicle>
    <vehicle id="532" depart="532.00">
        <route edges="7:3 3:1 1:0 0:2"/>
    </vehicle>
    <vehicle id="534" depart="534.00">
        <route edges="7:3 3:1 1:0 0:2"/>
    </vehicle>
    <vehicle id="536" depart="536.00">
        <route edges="2:0 0:9 9:10"/>
    </vehicle>
    <vehicle id="539" depart="539.00">
        <route edges="1:3"/>
    </vehicle>
    <vehicle id="544" depart="544.00">
        <route edges="8:2 2:0 0:1 1:3 3:7"/>
    </vehicle>
    <vehicle id="545" depart="545.00">
        <route edges="3:1 1:5 5:6"/>
    </vehicle>
    <vehicle id="546" depart="546.00">
        <route edges="7:3 3:1 1:0 0:2 2:8"/>
    </vehicle>
    <vehicle id="547" depart="547.00">
        <route edges="10:9 9:0 0:2 2:8"/>
    </vehicle>
    <vehicle id="549" depart="549.00">
        <route edges="5:1 1:0 0:2"/>
    </vehicle>
    <vehicle id="550" depart="550.00">
        <route edges="8:2 2:0 0:1 1:3"/>
    </vehicle>
    <vehicle id="551" depart="551.00">
        <route edges="2:0 0:1 1:3 3:7"/>
    </vehicle>
    <vehicle id="552" depart="552.00">
        <route edges="2:0 0:9 9:10"/>
    </vehicle>
    <vehicle id="553" depart="553.00">
        <route edges="10:9 9:0 0:2 2:8"/>
    </vehicle>
    <vehicle id="554" depart="554.00">
        <route edges="8:2 2:0 0:1 1:5"/>
    </vehicle>
    <vehicle id="555" depart="555.00">
        <route edges="7:3 3:1 1:5 5:6"/>
    </vehicle>
    <vehicle id="557" depart="557.00">
        <route edges="0:1 1:3 3:7"/>
    </vehicle>
    <vehicle id="558" depart="558.00">
        <route edges="7:3 3:1 1:0 0:2"/>
    </vehicle>
    <vehicle id="559" depart="559.00">
        <route edges="1:3 3:7"/>
    </vehicle>
    <vehicle id="560" depart="560.00">
        <route edges="8:2 2:0 0:1 1:3"/>
    </vehicle>
    <vehicle id="561" depart="561.00">
        <route edges="7:3 3:1"/>
    </vehicle>
    <vehicle id="562" depart="562.00">
        <route edges="6:5 5:1 1:0 0:2"/>
    </vehicle>
    <vehicle id="564" depart="564.00">
        <route edges="0:2 2:8"/>
    </vehicle>
    <vehicle id="565" depart="565.00">
        <route edges="10:9 9:0 0:2"/>
    </vehicle>
    <vehicle id="566" depart="566.00">
        <route edges="5:1 1:3 3:7"/>
    </vehicle>
    <vehicle id="568" depart="568.00">
        <route edges="7:3 3:1 1:0 0:2 2:8"/>
    </vehicle>
    <vehicle id="570" depart="570.00">
        <route edges="2:0 0:9"/>
    </vehicle>
    <vehicle id="571" depart="571.00">
        <route edges="3:1 1:0 0:9"/>
    </vehicle>
    <vehicle id="573" depart="573.00">
        <route edges="3:1 1:5"/>
    </vehicle>
    <vehicle id="574" depart="574.00">
        <route edges="7:3 3:1"/>
    </vehicle>
    <vehicle id="578" depart="578.00">
        <route edges="6:5 5:1 1:3 3:7"/>
    </vehicle>
    <vehicle id="579" depart="579.00">
        <route edges="1:0"/>
    </vehicle>
    <vehicle id="582" depart="582.00">
        <route edges="2:0 0:1 1:3"/>
    </vehicle>
    <vehicle id="585" depart="585.00">
        <route edges="10:9 9:0 0:1 1:3"/>
    </vehicle>
    <vehicle id="589" depart="589.00">
        <route edges="9:0 0:1 1:3 3:7"/>
    </vehicle>
    <vehicle id="593" depart="593.00">
        <route edges="5:1"/>
    </vehicle>
    <vehicle id="598" depart="598.00">
        <route edges="7:3 3:1 1:5 5:6"/>
    </vehicle>
    <vehicle id="599" depart="599.00">
        <route edges="7:3 3:1"/>
    </vehicle>
    <vehicle id="603" depart="603.00">
        <route edges="3:1"/>
    </vehicle>
    <vehicle id="604" depart="604.00">
        <route edges="2:0 0:1 1:5"/>
    </vehicle>
    <vehicle id="606" depart="606.00">
        <route edges="5:1 1:3 3:7"/>
    </vehicle>
    <vehicle id="607" depart="607.00">
        <route edges="0:1 1:3 3:7"/>
    </vehicle>
    <vehicle id="609" depart="609.00">
        <route edges="2:0 0:1"/>
    </vehicle>
    <vehicle id="610" depart="610.00">
        <route edges="10:9 9:0 0:1 1:5 5:6"/>
    </vehicle>
    <vehicle id="612" depart="612.00">
        <route edges="8:2 2:0"/>
    </vehicle>
    <vehicle id="616" depart="616.00">
        <route edges="8:2 2:0 0:1 1:5"/>
    </vehicle>
    <vehicle id="617" depart="617.00">
        <route edges="7:3 3:1 1:0 0:9"/>
    </vehicle>
    <vehicle id="619" depart="619.00">
        <route edges="5:1 1:0 0:2 2:8"/>
    </vehicle>
    <vehicle id="620" depart="620.00">
        <route edges="9:0 0:1 1:3"/>
    </vehicle>
    <vehicle id="622" depart="622.00">
        <route edges="8:2 2:0"/>
    </vehicle>
    <vehicle id="623" depart="623.00">
        <route edges="10:9 9:0 0:2"/>
    </vehicle>
    <vehicle id="626" depart="626.00">
        <route edges="10:9 9:0 0:2 2:8"/>
    </vehicle>
    <vehicle id="627" depart="627.00">
        <route edges="8:2 2:0 0:1 1:5 5:6"/>
    </vehicle>
    <vehicle id="631" depart="631.00">
        <route edges="8:2 2:0 0:1 1:5 5:6"/>
    </vehicle>