<?xml version="1.0" encoding="UTF-8"?>

<!-- generated on Thu Feb 13 14:16:16 2014 by SUMO duarouter Version 0.18.0
<?xml version="1.0" encoding="UTF-8"?>

<configuration xmlns:xsi="http://www.w3.org/2001/XMLSchema-instance" xsi:noNamespaceSchemaLocation="http://sumo.sf.net/xsd/duarouterConfiguration.xsd">

    <input>
        <net-file value="twinT.net.xml"/>
        <trip-files value="experimentos/twinT.p0.7.7.trips.xml"/>
    </input>

    <output>
        <output-file value="experimentos/twinT.p0.7.7.rou.xml"/>
    </output>

    <processing>
        <ignore-errors value="true"/>
    </processing>

    <random_number>
        <random value="true"/>
    </random_number>

</configuration>
-->

<routes xmlns:xsi="http://www.w3.org/2001/XMLSchema-instance" xsi:noNamespaceSchemaLocation="http://sumo.sf.net/xsd/routes_file.xsd">
    <vehicle id="1" depart="0.70">
        <route edges="7:3 3:1 1:0 0:9"/>
    </vehicle>
    <vehicle id="8" depart="5.60">
        <route edges="6:5 5:1 1:0"/>
    </vehicle>
    <vehicle id="11" depart="7.70">
        <route edges="7:3 3:1 1:5"/>
    </vehicle>
    <vehicle id="12" depart="8.40">
        <route edges="7:3 3:1"/>
    </vehicle>
    <vehicle id="13" depart="9.10">
        <route edges="8:2 2:0 0:1 1:3 3:7"/>
    </vehicle>
    <vehicle id="14" depart="9.80">
        <route edges="9:0 0:1 1:5"/>
    </vehicle>
    <vehicle id="15" depart="10.50">
        <route edges="7:3 3:1 1:5"/>
    </vehicle>
    <vehicle id="16" depart="11.20">
        <route edges="7:3 3:1"/>
    </vehicle>
    <vehicle id="17" depart="11.90">
        <route edges="0:2"/>
    </vehicle>
    <vehicle id="21" depart="14.70">
        <route edges="8:2 2:0"/>
    </vehicle>
    <vehicle id="22" depart="15.40">
        <route edges="7:3 3:1 1:0 0:9 9:10"/>
    </vehicle>
    <vehicle id="23" depart="16.10">
        <route edges="8:2 2:0"/>
    </vehicle>
    <vehicle id="26" depart="18.20">
        <route edges="8:2 2:0 0:1"/>
    </vehicle>
    <vehicle id="27" depart="18.90">
        <route edges="7:3 3:1"/>
    </vehicle>
    <vehicle id="28" depart="19.60">
        <route edges="10:9 9:0 0:2 2:8"/>
    </vehicle>
    <vehicle id="30" depart="21.00">
        <route edges="3:1 1:0 0:9"/>
    </vehicle>
    <vehicle id="32" depart="22.40">
        <route edges="7:3 3:1 1:0 0:2 2:8"/>
    </vehicle>
    <vehicle id="33" depart="23.10">
        <route edges="0:2"/>
    </vehicle>
    <vehicle id="34" depart="23.80">
        <route edges="10:9 9:0 0:1 1:5"/>
    </vehicle>
    <vehicle id="36" depart="25.20">
        <route edges="9:0 0:2 2:8"/>
    </vehicle>
    <vehicle id="43" depart="30.10">
        <route edges="6:5 5:1 1:0 0:2 2:8"/>
    </vehicle>
    <vehicle id="44" depart="30.80">
        <route edges="0:2 2:8"/>
    </vehicle>
    <vehicle id="45" depart="31.50">
        <route edges="3:1 1:0 0:2"/>
    </vehicle>
    <vehicle id="47" depart="32.90">
        <route edges="2:0 0:1 1:3 3:7"/>
    </vehicle>
    <vehicle id="50" depart="35.00">
        <route edges="3:1 1:0 0:2 2:8"/>
    </vehicle>
    <vehicle id="55" depart="38.50">
        <route edges="9:0 0:2"/>
    </vehicle>
    <vehicle id="56" depart="39.20">
        <route edges="3:1"/>
    </vehicle>
    <vehicle id="59" depart="41.30">
        <route edges="3:1 1:0 0:2 2:8"/>
    </vehicle>
    <vehicle id="61" depart="42.70">
        <route edges="6:5 5:1 1:0 0:2"/>
    </vehicle>
    <vehicle id="63" depart="44.10">
        <route edges="7:3 3:1 1:0 0:2"/>
    </vehicle>
    <vehicle id="65" depart="45.50">
        <route edges="9:0 0:2 2:8"/>
    </vehicle>
    <vehicle id="67" depart="46.90">
        <route edges="2:0 0:1 1:3"/>
    </vehicle>
    <vehicle id="69" depart="48.30">
        <route edges="2:0 0:1"/>
    </vehicle>
    <vehicle id="71" depart="49.70">
        <route edges="1:0 0:9 9:10"/>
    </vehicle>
    <vehicle id="74" depart="51.80">
        <route edges="6:5 5:1 1:3 3:7"/>
    </vehicle>
    <vehicle id="76" depart="53.20">
        <route edges="7:3 3:1 1:0 0:2 2:8"/>
    </vehicle>
    <vehicle id="81" depart="56.70">
        <route edges="2:0 0:9"/>
    </vehicle>
    <vehicle id="85" depart="59.50">
        <route edges="8:2 2:0 0:1 1:5 5:6"/>
    </vehicle>
    <vehicle id="87" depart="60.90">
        <route edges="1:0 0:2"/>
    </vehicle>
    <vehicle id="89" depart="62.30">
        <route edges="2:0 0:1 1:3"/>
    </vehicle>
    <vehicle id="90" depart="63.00">
        <route edges="6:5 5:1 1:0 0:2 2:8"/>
    </vehicle>
    <vehicle id="91" depart="63.70">
        <route edges="6:5 5:1 1:3 3:7"/>
    </vehicle>
    <vehicle id="92" depart="64.40">
        <route edges="7:3 3:1 1:0 0:9 9:10"/>
    </vehicle>
    <vehicle id="102" depart="71.40">
        <route edges="2:0 0:1 1:5 5:6"/>
    </vehicle>
    <vehicle id="103" depart="72.10">
        <route edges="6:5 5:1 1:3 3:7"/>
    </vehicle>
    <vehicle id="104" depart="72.80">
        <route edges="3:1 1:0 0:2"/>
    </vehicle>
    <vehicle id="108" depart="75.60">
        <route edges="1:3"/>
    </vehicle>
    <vehicle id="109" depart="76.30">
        <route edges="8:2 2:0 0:1 1:3 3:7"/>
    </vehicle>
    <vehicle id="110" depart="77.00">
        <route edges="8:2 2:0 0:1 1:5 5:6"/>
    </vehicle>
    <vehicle id="113" depart="79.10">
        <route edges="7:3 3:1 1:0"/>
    </vehicle>
    <vehicle id="114" depart="79.80">
        <route edges="8:2 2:0 0:1 1:3 3:7"/>
    </vehicle>
    <vehicle id="115" depart="80.50">
        <route edges="6:5 5:1 1:3 3:7"/>
    </vehicle>
    <vehicle id="116" depart="81.20">
        <route edges="1:3"/>
    </vehicle>
    <vehicle id="118" depart="82.60">
        <route edges="1:0 0:9"/>
    </vehicle>
    <vehicle id="120" depart="84.00">
        <route edges="1:3 3:7"/>
    </vehicle>
    <vehicle id="121" depart="84.70">
        <route edges="6:5 5:1 1:0 0:2"/>
    </vehicle>
    <vehicle id="123" depart="86.10">
        <route edges="3:1 1:0 0:2"/>
    </vehicle>
    <vehicle id="124" depart="86.80">
        <route edges="8:2 2:0 0:1 1:3"/>
    </vehicle>
    <vehicle id="125" depart="87.50">
        <route edges="7:3 3:1 1:0 0:2 2:8"/>
    </vehicle>
    <vehicle id="126" depart="88.20">
        <route edges="10:9 9:0 0:2"/>
    </vehicle>
    <vehicle id="127" depart="88.90">
        <route edges="10:9 9:0 0:2 2:8"/>
    </vehicle>
    <vehicle id="128" depart="89.60">
        <route edges="0:1 1:3 3:7"/>
    </vehicle>
    <vehicle id="130" depart="91.00">
        <route edges="2:0 0:9"/>
    </vehicle>
    <vehicle id="131" depart="91.70">
        <route edges="5:1 1:0 0:2"/>
    </vehicle>
    <vehicle id="133" depart="93.10">
        <route edges="3:1 1:0 0:2 2:8"/>
    </vehicle>
    <vehicle id="135" depart="94.50">
        <route edges="7:3 3:1"/>
    </vehicle>
    <vehicle id="136" depart="95.20">
        <route edges="9:0 0:2"/>
    </vehicle>
    <vehicle id="138" depart="96.60">
        <route edges="10:9 9:0 0:2"/>
    </vehicle>
    <vehicle id="144" depart="100.80">
        <route edges="7:3 3:1 1:0 0:2 2:8"/>
    </vehicle>
    <vehicle id="145" depart="101.50">
        <route edges="10:9 9:0 0:1"/>
    </vehicle>
    <vehicle id="147" depart="102.90">
        <route edges="0:2 2:8"/>
    </vehicle>
    <vehicle id="148" depart="103.60">
        <route edges="10:9 9:0 0:1 1:3"/>
    </vehicle>
    <vehicle id="149" depart="104.30">
        <route edges="9:0 0:2 2:8"/>
    </vehicle>
    <vehicle id="152" depart="106.40">
        <route edges="3:1"/>
    </vehicle>
    <vehicle id="153" depart="107.10">
        <route edges="7:3 3:1 1:5 5:6"/>
    </vehicle>
    <vehicle id="157" depart="109.90">
        <route edges="7:3 3:1 1:5 5:6"/>
    </vehicle>
    <vehicle id="158" depart="110.60">
        <route edges="3:1"/>
    </vehicle>
    <vehicle id="159" depart="111.30">
        <route edges="7:3 3:1 1:0 0:2"/>
    </vehicle>
    <vehicle id="161" depart="112.70">
        <route edges="1:0 0:2"/>
    </vehicle>
    <vehicle id="163" depart="114.10">
        <route edges="3:1 1:0 0:2"/>
    </vehicle>
    <vehicle id="165" depart="115.50">
        <route edges="9:0 0:1 1:5"/>
    </vehicle>
    <vehicle id="170" depart="119.00">
        <route edges="9:0 0:1 1:5 5:6"/>
    </vehicle>
    <vehicle id="175" depart="122.50">
        <route edges="2:0 0:1 1:3 3:7"/>
    </vehicle>
    <vehicle id="177" depart="123.90">
        <route edges="7:3 3:1 1:0"/>
    </vehicle>
    <vehicle id="179" depart="125.30">
        <route edges="0:2"/>
    </vehicle>
    <vehicle id="181" depart="126.70">
        <route edges="8:2 2:0 0:1 1:3 3:7"/>
    </vehicle>
    <vehicle id="184" depart="128.80">
        <route edges="8:2 2:0"/>
    </vehicle>
    <vehicle id="187" depart="130.90">
        <route edges="0:1 1:3 3:7"/>
    </vehicle>
    <vehicle id="191" depart="133.70">
        <route edges="7:3 3:1 1:5 5:6"/>
    </vehicle>
    <vehicle id="193" depart="135.10">
        <route edges="6:5 5:1 1:0 0:2 2:8"/>
    </vehicle>
    <vehicle id="195" depart="136.50">
        <route edges="2:0 0:1 1:3 3:7"/>
    </vehicle>
    <vehicle id="196" depart="137.20">
        <route edges="8:2 2:0 0:1"/>
    </vehicle>
    <vehicle id="197" depart="137.90">
        <route edges="2:0 0:1"/>
    </vehicle>
    <vehicle id="199" depart="139.30">
        <route edges="7:3 3:1 1:0 0:9"/>
    </vehicle>
    <vehicle id="203" depart="142.10">
        <route edges="9:0 0:2 2:8"/>
    </vehicle>
    <vehicle id="204" depart="142.80">
        <route edges="10:9 9:0 0:1 1:3 3:7"/>
    </vehicle>
    <vehicle id="205" depart="143.50">
        <route edges="7:3 3:1 1:0 0:2 2:8"/>
    </vehicle>
    <vehicle id="210" depart="147.00">
        <route edges="8:2 2:0 0:1 1:3"/>
    </vehicle>
    <vehicle id="212" depart="148.40">
        <route edges="1:3"/>
    </vehicle>
    <vehicle id="214" depart="149.80">
        <route edges="7:3 3:1 1:0 0:2"/>
    </vehicle>
    <vehicle id="217" depart="151.90">
        <route edges="7:3 3:1 1:0 0:9 9:10"/>
    </vehicle>
    <vehicle id="218" depart="152.60">
        <route edges="8:2 2:0 0:1 1:5"/>
    </vehicle>
    <vehicle id="219" depart="153.30">
        <route edges="6:5 5:1 1:0"/>
    </vehicle>
    <vehicle id="223" depart="156.10">
        <route edges="6:5 5:1 1:3"/>
    </vehicle>
    <vehicle id="224" depart="156.80">
        <route edges="9:0 0:1"/>
    </vehicle>
    <vehicle id="226" depart="158.20">
        <route edges="3:1 1:0 0:2"/>
    </vehicle>
    <vehicle id="227" depart="158.90">
        <route edges="3:1 1:5 5:6"/>
    </vehicle>
    <vehicle id="228" depart="159.60">
        <route edges="2:0 0:1 1:3 3:7"/>
    </vehicle>
    <vehicle id="229" depart="160.30">
        <route edges="7:3 3:1 1:0 0:2 2:8"/>
    </vehicle>
    <vehicle id="230" depart="161.00">
        <route edges="2:0 0:1 1:5 5:6"/>
    </vehicle>
    <vehicle id="231" depart="161.70">
        <route edges="9:0 0:1 1:3"/>
    </vehicle>
    <vehicle id="233" depart="163.10">
        <route edges="10:9 9:0 0:1 1:3 3:7"/>
    </vehicle>
    <vehicle id="235" depart="164.50">
        <route edges="7:3 3:1 1:0"/>
    </vehicle>
    <vehicle id="236" depart="165.20">
        <route edges="2:0 0:1"/>
    </vehicle>
    <vehicle id="237" depart="165.90">
        <route edges="5:1 1:0 0:9"/>
    </vehicle>
    <vehicle id="239" depart="167.30">
        <route edges="2:0 0:1 1:5"/>
    </vehicle>
    <vehicle id="241" depart="168.70">
        <route edges="10:9 9:0 0:2 2:8"/>
    </vehicle>
    <vehicle id="242" depart="169.40">
        <route edges="6:5 5:1 1:0 0:9 9:10"/>
    </vehicle>
    <vehicle id="243" depart="170.10">
        <route edges="8:2 2:0 0:1 1:3 3:7"/>
    </vehicle>
    <vehicle id="244" depart="170.80">
        <route edges="8:2 2:0 0:1 1:3"/>
    </vehicle>
    <vehicle id="245" depart="171.50">
        <route edges="8:2 2:0 0:1 1:3 3:7"/>
    </vehicle>
    <vehicle id="246" depart="172.20">
        <route edges="0:1 1:3"/>
    </vehicle>
    <vehicle id="247" depart="172.90">
        <route edges="7:3 3:1 1:0 0:2 2:8"/>
    </vehicle>
    <vehicle id="248" depart="173.60">
        <route edges="9:0 0:1 1:3"/>
    </vehicle>
    <vehicle id="249" depart="174.30">
        <route edges="7:3 3:1 1:0 0:2"/>
    </vehicle>
    <vehicle id="250" depart="175.00">
        <route edges="7:3 3:1 1:0 0:2"/>
    </vehicle>
    <vehicle id="251" depart="175.70">
        <route edges="7:3 3:1 1:5"/>
    </vehicle>
    <vehicle id="253" depart="177.10">
        <route edges="8:2 2:0 0:1"/>
    </vehicle>
    <vehicle id="254" depart="177.80">
        <route edges="6:5 5:1 1:0 0:2 2:8"/>
    </vehicle>
    <vehicle id="255" depart="178.50">
        <route edges="7:3 3:1 1:0 0:9 9:10"/>
    </vehicle>
    <vehicle id="256" depart="179.20">
        <route edges="6:5 5:1 1:0 0:2"/>
    </vehicle>
    <vehicle id="258" depart="180.60">
        <route edges="0:1 1:3 3:7"/>
    </vehicle>
    <vehicle id="262" depart="183.40">
        <route edges="10:9 9:0 0:1 1:3"/>
    </vehicle>
    <vehicle id="264" depart="184.80">
        <route edges="6:5 5:1 1:0 0:9 9:10"/>
    </vehicle>
    <vehicle id="269" depart="188.30">
        <route edges="7:3 3:1 1:5 5:6"/>
    </vehicle>
    <vehicle id="270" depart="189.00">
        <route edges="8:2 2:0"/>
    </vehicle>
    <vehicle id="274" depart="191.80">
        <route edges="10:9 9:0 0:1 1:3 3:7"/>
    </vehicle>
    <vehicle id="275" depart="192.50">
        <route edges="10:9 9:0 0:2 2:8"/>
    </vehicle>
    <vehicle id="276" depart="193.20">
        <route edges="6:5 5:1 1:3"/>
    </vehicle>
    <vehicle id="283" depart="198.10">
        <route edges="8:2 2:0 0:1 1:5 5:6"/>
    </vehicle>
    <vehicle id="284" depart="198.80">
        <route edges="1:3 3:7"/>
    </vehicle>
    <vehicle id="285" depart="199.50">
        <route edges="2:0 0:1 1:3 3:7"/>
    </vehicle>
    <vehicle id="286" depart="200.20">
        <route edges="8:2 2:0 0:1 1:5"/>
    </vehicle>
    <vehicle id="287" depart="200.90">
        <route edges="2:0 0:1 1:5"/>
    </vehicle>
    <vehicle id="288" depart="201.60">
        <route edges="7:3 3:1 1:0 0:2 2:8"/>
    </vehicle>
    <vehicle id="292" depart="204.40">
        <route edges="2:0"/>
    </vehicle>
    <vehicle id="293" depart="205.10">
        <route edges="8:2 2:0 0:1 1:3"/>
    </vehicle>
    <vehicle id="295" depart="206.50">
        <route edges="10:9 9:0 0:1 1:3"/>
    </vehicle>
    <vehicle id="301" depart="210.70">
        <route edges="0:1 1:5 5:6"/>
    </vehicle>
    <vehicle id="303" depart="212.10">
        <route edges="0:1 1:3 3:7"/>
    </vehicle>
    <vehicle id="304" depart="212.80">
        <route edges="2:0 0:1 1:3"/>
    </vehicle>
    <vehicle id="305" depart="213.50">
        <route edges="2:0 0:1 1:3 3:7"/>
    </vehicle>
    <vehicle id="306" depart="214.20">
        <route edges="9:0 0:2 2:8"/>
    </vehicle>
    <vehicle id="310" depart="217.00">
        <route edges="7:3 3:1"/>
    </vehicle>
    <vehicle id="311" depart="217.70">
        <route edges="1:0 0:2"/>
    </vehicle>
    <vehicle id="315" depart="220.50">
        <route edges="2:0 0:1 1:3 3:7"/>
    </vehicle>
    <vehicle id="318" depart="222.60">
        <route edges="0:2 2:8"/>
    </vehicle>
    <vehicle id="321" depart="224.70">
        <route edges="8:2 2:0 0:9"/>
    </vehicle>
    <vehicle id="323" depart="226.10">
        <route edges="9:0 0:2 2:8"/>
    </vehicle>
    <vehicle id="325" depart="227.50">
        <route edges="1:0 0:2"/>
    </vehicle>
    <vehicle id="326" depart="228.20">
        <route edges="8:2 2:0"/>
    </vehicle>
    <vehicle id="327" depart="228.90">
        <route edges="3:1 1:5 5:6"/>
    </vehicle>
    <vehicle id="331" depart="231.70">
        <route edges="10:9 9:0 0:1 1:3"/>
    </vehicle>
    <vehicle id="333" depart="233.10">
        <route edges="7:3 3:1 1:0 0:2 2:8"/>
    </vehicle>
    <vehicle id="334" depart="233.80">
        <route edges="0:2 2:8"/>
    </vehicle>
    <vehicle id="338" depart="236.60">
        <route edges="10:9 9:0"/>
    </vehicle>
    <vehicle id="339" depart="237.30">
        <route edges="1:3"/>
    </vehicle>
    <vehicle id="340" depart="238.00">
        <route edges="0:2 2:8"/>
    </vehicle>
    <vehicle id="341" depart="238.70">
        <route edges="6:5 5:1 1:0 0:9 9:10"/>
    </vehicle>
    <vehicle id="343" depart="240.10">
        <route edges="0:2 2:8"/>
    </vehicle>
    <vehicle id="345" depart="241.50">
        <route edges="9:0"/>
    </vehicle>
    <vehicle id="348" depart="243.60">
        <route edges="3:1 1:0 0:2 2:8"/>
    </vehicle>
    <vehicle id="349" depart="244.30">
        <route edges="3:1 1:0 0:2 2:8"/>
    </vehicle>
    <vehicle id="355" depart="248.50">
        <route edges="8:2 2:0 0:1"/>
    </vehicle>
    <vehicle id="356" depart="249.20">
        <route edges="0:1 1:3"/>
    </vehicle>
    <vehicle id="358" depart="250.60">
        <route edges="5:1 1:0 0:9"/>
    </vehicle>
    <vehicle id="360" depart="252.00">
        <route edges="8:2 2:0 0:9"/>
    </vehicle>
    <vehicle id="361" depart="252.70">
        <route edges="2:0 0:1 1:3 3:7"/>
    </vehicle>
    <vehicle id="362" depart="253.40">
        <route edges="10:9 9:0 0:1 1:3"/>
    </vehicle>
    <vehicle id="363" depart="254.10">
        <route edges="0:1 1:3 3:7"/>
    </vehicle>
    <vehicle id="364" depart="254.80">
        <route edges="1:0 0:9 9:10"/>
    </vehicle>
    <vehicle id="366" depart="256.20">
        <route edges="8:2 2:0 0:1 1:5 5:6"/>
    </vehicle>
    <vehicle id="369" depart="258.30">
        <route edges="2:0 0:9 9:10"/>
    </vehicle>
    <vehicle id="370" depart="259.00">
        <route edges="8:2 2:0 0:1 1:3 3:7"/>
    </vehicle>
    <vehicle id="371" depart="259.70">
        <route edges="1:0 0:9 9:10"/>
    </vehicle>
    <vehicle id="373" depart="261.10">
        <route edges="7:3 3:1 1:0 0:2"/>
    </vehicle>
    <vehicle id="376" depart="263.20">
        <route edges="10:9 9:0 0:1 1:3"/>
    </vehicle>
    <vehicle id="377" depart="263.90">
        <route edges="6:5 5:1 1:0"/>
    </vehicle>
    <vehicle id="378" depart="264.60">
        <route edges="10:9 9:0 0:1 1:3 3:7"/>
    </vehicle>
    <vehicle id="382" depart="267.40">
        <route edges="7:3 3:1 1:5 5:6"/>
    </vehicle>
    <vehicle id="384" depart="268.80">
        <route edges="10:9 9:0 0:1 1:5 5:6"/>
    </vehicle>
    <vehicle id="385" depart="269.50">
        <route edges="8:2 2:0 0:1 1:3 3:7"/>
    </vehicle>
    <vehicle id="387" depart="270.90">
        <route edges="10:9 9:0 0:2 2:8"/>
    </vehicle>
    <vehicle id="389" depart="272.30">
        <route edges="10:9 9:0 0:1 1:3 3:7"/>
    </vehicle>
    <vehicle id="392" depart="274.40">
        <route edges="3:1 1:0 0:9"/>
    </vehicle>
    <vehicle id="393" depart="275.10">
        <route edges="1:3 3:7"/>
    </vehicle>
    <vehicle id="397" depart="277.90">
        <route edges="0:1 1:3 3:7"/>
    </vehicle>
    <vehicle id="398" depart="278.60">
        <route edges="1:0 0:2 2:8"/>
    </vehicle>
    <vehicle id="401" depart="280.70">
        <route edges="6:5 5:1 1:0 0:2 2:8"/>
    </vehicle>
    <vehicle id="402" depart="281.40">
        <route edges="6:5 5:1 1:0 0:2 2:8"/>
    </vehicle>
    <vehicle id="406" depart="284.20">
        <route edges="5:1"/>
    </vehicle>
    <vehicle id="411" depart="287.70">
        <route edges="0:1 1:3"/>
    </vehicle>
    <vehicle id="412" depart="288.40">
        <route edges="2:0 0:9 9:10"/>
    </vehicle>
    <vehicle id="413" depart="289.10">
        <route edges="3:1 1:0"/>
    </vehicle>
    <vehicle id="418" depart="292.60">
        <route edges="9:0 0:2 2:8"/>
    </vehicle>
    <vehicle id="420" depart="294.00">
        <route edges="2:0 0:1 1:3"/>
    </vehicle>
    <vehicle id="421" depart="294.70">
        <route edges="0:2 2:8"/>
    </vehicle>
    <vehicle id="423" depart="296.10">
        <route edges="7:3 3:1 1:5"/>
    </vehicle>
    <vehicle id="427" depart="298.90">
        <route edges="10:9 9:0 0:1 1:5 5:6"/>
    </vehicle>
    <vehicle id="428" depart="299.60">
        <route edges="6:5 5:1 1:3 3:7"/>
    </vehicle>
    <vehicle id="431" depart="301.70">
        <route edges="10:9 9:0 0:1 1:5 5:6"/>
    </vehicle>
    <vehicle id="432" depart="302.40">
        <route edges="6:5 5:1 1:0"/>
    </vehicle>
    <vehicle id="435" depart="304.50">
        <route edges="2:0"/>
    </vehicle>
    <vehicle id="436" depart="305.20">
        <route edges="7:3 3:1 1:0 0:2 2:8"/>
    </vehicle>
    <vehicle id="438" depart="306.60">
        <route edges="7:3 3:1 1:0 0:2"/>
    </vehicle>
    <vehicle id="439" depart="307.30">
        <route edges="2:0 0:1 1:3"/>
    </vehicle>
    <vehicle id="441" depart="308.70">
        <route edges="7:3 3:1 1:0 0:2 2:8"/>
    </vehicle>
    <vehicle id="442" depart="309.40">
        <route edges="8:2 2:0 0:1 1:5 5:6"/>
    </vehicle>
    <vehicle id="445" depart="311.50">
        <route edges="10:9 9:0 0:2 2:8"/>
    </vehicle>
    <vehicle id="450" depart="315.00">
        <route edges="2:0"/>
    </vehicle>
    <vehicle id="453" depart="317.10">
        <route edges="0:2 2:8"/>
    </vehicle>
    <vehicle id="455" depart="318.50">
        <route edges="6:5 5:1 1:3"/>
    </vehicle>
    <vehicle id="456" depart="319.20">
        <route edges="2:0"/>
    </vehicle>
    <vehicle id="458" depart="320.60">
        <route edges="1:0 0:2"/>
    </vehicle>
    <vehicle id="464" depart="324.80">
        <route edges="10:9 9:0 0:2"/>
    </vehicle>
    <vehicle id="467" depart="326.90">
        <route edges="9:0 0:2 2:8"/>
    </vehicle>
    <vehicle id="468" depart="327.60">
        <route edges="10:9 9:0 0:1 1:3 3:7"/>
    </vehicle>
    <vehicle id="471" depart="329.70">
        <route edges="7:3 3:1 1:5 5:6"/>
    </vehicle>
    <vehicle id="472" depart="330.40">
        <route edges="8:2 2:0 0:1 1:3 3:7"/>
    </vehicle>
    <vehicle id="473" depart="331.10">
        <route edges="1:0 0:2"/>
    </vehicle>
    <vehicle id="474" depart="331.80">
        <route edges="6:5 5:1 1:3 3:7"/>
    </vehicle>
    <vehicle id="475" depart="332.50">
        <route edges="1:3"/>
    </vehicle>
    <vehicle id="477" depart="333.90">
        <route edges="0:2 2:8"/>
    </vehicle>
    <vehicle id="478" depart="334.60">
        <route edges="6:5 5:1 1:0"/>
    </vehicle>
    <vehicle id="479" depart="335.30">
        <route edges="10:9 9:0 0:1"/>
    </vehicle>
    <vehicle id="480" depart="336.00">
        <route edges="6:5 5:1 1:0 0:2"/>
    </vehicle>
    <vehicle id="484" depart="338.80">
        <route edges="8:2 2:0 0:1 1:3 3:7"/>
    </vehicle>
    <vehicle id="485" depart="339.50">
        <route edges="3:1"/>
    </vehicle>
    <vehicle id="488" depart="341.60">
        <route edges="10:9 9:0 0:1 1:3"/>
    </vehicle>
    <vehicle id="494" depart="345.80">
        <route edges="7:3 3:1 1:0 0:2 2:8"/>
    </vehicle>
    <vehicle id="498" depart="348.60">
        <route edges="8:2 2:0 0:1 1:5 5:6"/>
    </vehicle>
    <vehicle id="499" depart="349.30">
        <route edges="10:9 9:0 0:1 1:3"/>
    </vehicle>
    <vehicle id="501" depart="350.70">
        <route edges="9:0 0:2"/>
    </vehicle>
    <vehicle id="502" depart="351.40">
        <route edges="1:3"/>
    </vehicle>
    <vehicle id="503" depart="352.10">
        <route edges="10:9 9:0 0:1 1:3 3:7"/>
    </vehicle>
    <vehicle id="505" depart="353.50">
        <route edges="3:1 1:0 0:2"/>
    </vehicle>
    <vehicle id="506" depart="354.20">
        <route edges="3:1"/>
    </vehicle>
    <vehicle id="507" depart="354.90">
        <route edges="7:3 3:1 1:0"/>
    </vehicle>
    <vehicle id="510" depart="357.00">
        <route edges="5:1 1:0 0:2"/>
    </vehicle>
    <vehicle id="511" depart="357.70">
        <route edges="1:3"/>
    </vehicle>
    <vehicle id="513" depart="359.10">
        <route edges="3:1 1:0 0:2 2:8"/>
    </vehicle>
    <vehicle id="515" depart="360.50">
        <route edges="9:0 0:2"/>
    </vehicle>
    <vehicle id="518" depart="362.60">
        <route edges="8:2 2:0 0:1 1:3 3:7"/>
    </vehicle>
    <vehicle id="519" depart="363.30">
        <route edges="7:3 3:1 1:0 0:2 2:8"/>
    </vehicle>
    <vehicle id="520" depart="364.00">
        <route edges="2:0 0:1 1:3"/>
    </vehicle>
    <vehicle id="523" depart="366.10">
        <route edges="8:2 2:0 0:1 1:3 3:7"/>
    </vehicle>
    <vehicle id="524" depart="366.80">
        <route edges="5:1 1:3 3:7"/>
    </vehicle>
    <vehicle id="527" depart="368.90">
        <route edges="3:1 1:5"/>
    </vehicle>
    <vehicle id="528" depart="369.60">
        <route edges="8:2 2:0 0:1 1:3 3:7"/>
    </vehicle>
    <vehicle id="529" depart="370.30">
        <route edges="8:2 2:0 0:1 1:3 3:7"/>
    </vehicle>
    <vehicle id="535" depart="374.50">
        <route edges="1:3 3:7"/>
    </vehicle>
    <vehicle id="536" depart="375.20">
        <route edges="0:2 2:8"/>
    </vehicle>
    <vehicle id="538" depart="376.60">
        <route edges="2:0 0:1 1:5 5:6"/>
    </vehicle>
    <vehicle id="543" depart="380.10">
        <route edges="3:1 1:0 0:9 9:10"/>
    </vehicle>
    <vehicle id="547" depart="382.90">
        <route edges="7:3 3:1 1:5 5:6"/>
    </vehicle>
    <vehicle id="548" depart="383.60">
        <route edges="1:5 5:6"/>
    </vehicle>
    <vehicle id="551" depart="385.70">
        <route edges="7:3 3:1 1:0 0:2"/>
    </vehicle>
    <vehicle id="552" depart="386.40">
        <route edges="7:3 3:1 1:5 5:6"/>
    </vehicle>
    <vehicle id="554" depart="387.80">
        <route edges="1:0 0:2 2:8"/>
    </vehicle>
    <vehicle id="556" depart="389.20">
        <route edges="3:1 1:0 0:2"/>
    </vehicle>
    <vehicle id="557" depart="389.90">
        <route edges="6:5 5:1 1:3 3:7"/>
    </vehicle>
    <vehicle id="558" depart="390.60">
        <route edges="10:9 9:0 0:2 2:8"/>
    </vehicle>
    <vehicle id="560" depart="392.00">
        <route edges="8:2 2:0 0:1"/>
    </vehicle>
    <vehicle id="562" depart="393.40">
        <route edges="3:1"/>
    </vehicle>
    <vehicle id="564" depart="394.80">
        <route edges="2:0"/>
    </vehicle>
    <vehicle id="565" depart="395.50">
        <route edges="0:1"/>
    </vehicle>
    <vehicle id="566" depart="396.20">
        <route edges="9:0 0:2 2:8"/>
    </vehicle>
    <vehicle id="568" depart="397.60">
        <route edges="10:9 9:0 0:2"/>
    </vehicle>
    <vehicle id="569" depart="398.30">
        <route edges="8:2 2:0 0:1 1:3 3:7"/>
    </vehicle>
    <vehicle id="571" depart="399.70">
        <route edges="2:0 0:9"/>
    </vehicle>
    <vehicle id="572" depart="400.40">
        <route edges="10:9 9:0 0:2"/>
    </vehicle>
    <vehicle id="573" depart="401.10">
        <route edges="10:9 9:0 0:2 2:8"/>
    </vehicle>
    <vehicle id="574" depart="401.80">
        <route edges="10:9 9:0 0:1 1:3 3:7"/>
    </vehicle>
    <vehicle id="579" depart="405.30">
        <route edges="7:3 3:1"/>
    </vehicle>
    <vehicle id="580" depart="406.00">
        <route edges="3:1 1:0 0:9"/>
    </vehicle>
    <vehicle id="581" depart="406.70">
        <route edges="5:1 1:0 0:2 2:8"/>
    </vehicle>
    <vehicle id="582" depart="407.40">
        <route edges="8:2 2:0"/>
    </vehicle>
    <vehicle id="585" depart="409.50">
        <route edges="7:3 3:1 1:0 0:2"/>
    </vehicle>
    <vehicle id="586" depart="410.20">
        <route edges="7:3 3:1 1:0 0:2"/>
    </vehicle>
    <vehicle id="588" depart="411.60">
        <route edges="0:2 2:8"/>
    </vehicle>
    <vehicle id="589" depart="412.30">
        <route edges="5:1 1:3 3:7"/>
    </vehicle>
    <vehicle id="591" depart="413.70">
        <route edges="7:3 3:1"/>
    </vehicle>
    <vehicle id="592" depart="414.40">
        <route edges="6:5 5:1 1:3"/>
    </vehicle>
    <vehicle id="596" depart="417.20">
        <route edges="2:0 0:1"/>
    </vehicle>
    <vehicle id="597" depart="417.90">
        <route edges="6:5 5:1 1:0 0:2 2:8"/>
    </vehicle>
    <vehicle id="600" depart="420.00">
        <route edges="6:5 5:1 1:0 0:2 2:8"/>
    </vehicle>
    <vehicle id="601" depart="420.70">
        <route edges="1:0 0:2"/>
    </vehicle>
    <vehicle id="603" depart="422.10">
        <route edges="6:5 5:1 1:0 0:2 2:8"/>
    </vehicle>
    <vehicle id="604" depart="422.80">
        <route edges="6:5 5:1 1:3 3:7"/>
    </vehicle>
    <vehicle id="606" depart="424.20">
        <route edges="1:0 0:2 2:8"/>
    </vehicle>
    <vehicle id="607" depart="424.90">
        <route edges="8:2 2:0 0:1 1:3"/>
    </vehicle>
    <vehicle id="608" depart="425.60">
        <route edges="8:2 2:0 0:1 1:5"/>
    </vehicle>
    <vehicle id="612" depart="428.40">
        <route edges="10:9 9:0 0:2 2:8"/>
    </vehicle>
    <vehicle id="613" depart="429.10">
        <route edges="8:2 2:0 0:1 1:3 3:7"/>
    </vehicle>
    <vehicle id="614" depart="429.80">
        <route edges="9:0 0:1 1:5"/>
    </vehicle>
    <vehicle id="618" depart="432.60">
        <route edges="5:1 1:0 0:2"/>
    </vehicle>
    <vehicle id="619" depart="433.30">
        <route edges="6:5 5:1 1:0 0:9 9:10"/>
    </vehicle>
    <vehicle id="620" depart="434.00">
        <route edges="7:3 3:1 1:0 0:2 2:8"/>
    </vehicle>
    <vehicle id="623" depart="436.10">
        <route edges="1:5 5:6"/>
    </vehicle>
    <vehicle id="625" depart="437.50">
        <route edges="6:5 5:1 1:0 0:9 9:10"/>
    </vehicle>
    <vehicle id="626" depart="438.20">
        <route edges="8:2 2:0 0:9"/>
    </vehicle>
    <vehicle id="627" depart="438.90">
        <route edges="8:2 2:0"/>
    </vehicle>
    <vehicle id="629" depart="440.30">
        <route edges="0:1 1:3"/>
    </vehicle>
    <vehicle id="631" depart="441.70">
        <route edges="5:1 1:3"/>
    </vehicle>
    <vehicle id="638" depart="446.60">
        <route edges="7:3 3:1 1:0 0:2 2:8"/>
    </vehicle>
    <vehicle id="639" depart="447.30">
        <route edges="0:1 1:3 3:7"/>
    </vehicle>
    <vehicle id="641" depart="448.70">