<?xml version="1.0" encoding="UTF-8"?>

<!-- generated on Thu Feb 13 14:15:37 2014 by SUMO duarouter Version 0.18.0
<?xml version="1.0" encoding="UTF-8"?>

<configuration xmlns:xsi="http://www.w3.org/2001/XMLSchema-instance" xsi:noNamespaceSchemaLocation="http://sumo.sf.net/xsd/duarouterConfiguration.xsd">

    <input>
        <net-file value="twinT.net.xml"/>
        <trip-files value="experimentos/twinT.p0.4.3.trips.xml"/>
    </input>

    <output>
        <output-file value="experimentos/twinT.p0.4.3.rou.xml"/>
    </output>

    <processing>
        <ignore-errors value="true"/>
    </processing>

    <random_number>
        <random value="true"/>
    </random_number>

</configuration>
-->

<routes xmlns:xsi="http://www.w3.org/2001/XMLSchema-instance" xsi:noNamespaceSchemaLocation="http://sumo.sf.net/xsd/routes_file.xsd">
    <vehicle id="0" depart="0.00">
        <route edges="8:2 2:0 0:1 1:5 5:6"/>
    </vehicle>
    <vehicle id="3" depart="1.20">
        <route edges="3:1"/>
    </vehicle>
    <vehicle id="4" depart="1.60">
        <route edges="7:3 3:1 1:0 0:2"/>
    </vehicle>
    <vehicle id="5" depart="2.00">
        <route edges="1:5 5:6"/>
    </vehicle>
    <vehicle id="6" depart="2.40">
        <route edges="8:2 2:0 0:9"/>
    </vehicle>
    <vehicle id="7" depart="2.80">
        <route edges="7:3 3:1 1:5"/>
    </vehicle>
    <vehicle id="8" depart="3.20">
        <route edges="8:2 2:0 0:1 1:3"/>
    </vehicle>
    <vehicle id="9" depart="3.60">
        <route edges="9:0 0:1 1:3 3:7"/>
    </vehicle>
    <vehicle id="10" depart="4.00">
        <route edges="9:0 0:1"/>
    </vehicle>
    <vehicle id="11" depart="4.40">
        <route edges="10:9 9:0 0:1 1:3 3:7"/>
    </vehicle>
    <vehicle id="14" depart="5.60">
        <route edges="1:0 0:9 9:10"/>
    </vehicle>
    <vehicle id="16" depart="6.40">
        <route edges="8:2 2:0"/>
    </vehicle>
    <vehicle id="18" depart="7.20">
        <route edges="2:0 0:1 1:3"/>
    </vehicle>
    <vehicle id="19" depart="7.60">
        <route edges="5:1 1:3 3:7"/>
    </vehicle>
    <vehicle id="21" depart="8.40">
        <route edges="8:2 2:0 0:1 1:3 3:7"/>
    </vehicle>
    <vehicle id="22" depart="8.80">
        <route edges="8:2 2:0 0:9 9:10"/>
    </vehicle>
    <vehicle id="23" depart="9.20">
        <route edges="10:9 9:0 0:1 1:3"/>
    </vehicle>
    <vehicle id="25" depart="10.00">
        <route edges="10:9 9:0 0:1 1:3"/>
    </vehicle>
    <vehicle id="26" depart="10.40">
        <route edges="6:5 5:1 1:0"/>
    </vehicle>
    <vehicle id="27" depart="10.80">
        <route edges="8:2 2:0"/>
    </vehicle>
    <vehicle id="28" depart="11.20">
        <route edges="3:1 1:0 0:2 2:8"/>
    </vehicle>
    <vehicle id="33" depart="13.20">
        <route edges="7:3 3:1"/>
    </vehicle>
    <vehicle id="36" depart="14.40">
        <route edges="8:2 2:0 0:1 1:5 5:6"/>
    </vehicle>
    <vehicle id="38" depart="15.20">
        <route edges="7:3 3:1 1:0"/>
    </vehicle>
    <vehicle id="41" depart="16.40">
        <route edges="10:9 9:0 0:1 1:3"/>
    </vehicle>
    <vehicle id="42" depart="16.80">
        <route edges="8:2 2:0 0:9 9:10"/>
    </vehicle>
    <vehicle id="44" depart="17.60">
        <route edges="9:0"/>
    </vehicle>
    <vehicle id="47" depart="18.80">
        <route edges="8:2 2:0 0:1 1:3 3:7"/>
    </vehicle>
    <vehicle id="48" depart="19.20">
        <route edges="0:1"/>
    </vehicle>
    <vehicle id="52" depart="20.80">
        <route edges="6:5 5:1 1:3"/>
    </vehicle>
    <vehicle id="53" depart="21.20">
        <route edges="7:3 3:1"/>
    </vehicle>
    <vehicle id="54" depart="21.60">
        <route edges="7:3 3:1 1:5 5:6"/>
    </vehicle>
    <vehicle id="57" depart="22.80">
        <route edges="10:9 9:0 0:1 1:5 5:6"/>
    </vehicle>
    <vehicle id="58" depart="23.20">
        <route edges="10:9 9:0 0:1 1:3 3:7"/>
    </vehicle>
    <vehicle id="59" depart="23.60">
        <route edges="0:2"/>
    </vehicle>
    <vehicle id="61" depart="24.40">
        <route edges="8:2 2:0 0:1 1:3 3:7"/>
    </vehicle>
    <vehicle id="62" depart="24.80">
        <route edges="10:9 9:0 0:1 1:3 3:7"/>
    </vehicle>
    <vehicle id="63" depart="25.20">
        <route edges="7:3 3:1 1:0 0:9 9:10"/>
    </vehicle>
    <vehicle id="65" depart="26.00">
        <route edges="7:3 3:1 1:0 0:9"/>
    </vehicle>
    <vehicle id="66" depart="26.40">
        <route edges="3:1 1:0 0:2 2:8"/>
    </vehicle>
    <vehicle id="72" depart="28.80">
        <route edges="2:0"/>
    </vehicle>
    <vehicle id="73" depart="29.20">
        <route edges="7:3 3:1"/>
    </vehicle>
    <vehicle id="74" depart="29.60">
        <route edges="0:2 2:8"/>
    </vehicle>
    <vehicle id="76" depart="30.40">
        <route edges="9:0 0:1 1:3 3:7"/>
    </vehicle>
    <vehicle id="83" depart="33.20">
        <route edges="10:9 9:0"/>
    </vehicle>
    <vehicle id="84" depart="33.60">
        <route edges="8:2 2:0 0:1 1:5 5:6"/>
    </vehicle>
    <vehicle id="86" depart="34.40">
        <route edges="7:3 3:1 1:0 0:2"/>
    </vehicle>
    <vehicle id="88" depart="35.20">
        <route edges="1:3 3:7"/>
    </vehicle>
    <vehicle id="89" depart="35.60">
        <route edges="2:0 0:9 9:10"/>
    </vehicle>
    <vehicle id="90" depart="36.00">
        <route edges="8:2 2:0 0:1 1:3"/>
    </vehicle>
    <vehicle id="93" depart="37.20">
        <route edges="5:1 1:0"/>
    </vehicle>
    <vehicle id="96" depart="38.40">
        <route edges="3:1 1:0 0:2 2:8"/>
    </vehicle>
    <vehicle id="97" depart="38.80">
        <route edges="8:2 2:0"/>
    </vehicle>
    <vehicle id="98" depart="39.20">
        <route edges="6:5 5:1 1:0"/>
    </vehicle>
    <vehicle id="99" depart="39.60">
        <route edges="0:2 2:8"/>
    </vehicle>
    <vehicle id="103" depart="41.20">
        <route edges="8:2 2:0 0:1 1:5 5:6"/>
    </vehicle>
    <vehicle id="104" depart="41.60">
        <route edges="1:3 3:7"/>
    </vehicle>
    <vehicle id="105" depart="42.00">
        <route edges="1:0 0:9 9:10"/>
    </vehicle>
    <vehicle id="106" depart="42.40">
        <route edges="8:2 2:0 0:1 1:3 3:7"/>
    </vehicle>
    <vehicle id="107" depart="42.80">
        <route edges="8:2 2:0 0:1 1:3 3:7"/>
    </vehicle>
    <vehicle id="109" depart="43.60">
        <route edges="5:1 1:0 0:9"/>
    </vehicle>
    <vehicle id="113" depart="45.20">
        <route edges="0:1 1:3"/>
    </vehicle>
    <vehicle id="115" depart="46.00">
        <route edges="8:2 2:0 0:1 1:3"/>
    </vehicle>
    <vehicle id="116" depart="46.40">
        <route edges="0:1 1:5"/>
    </vehicle>
    <vehicle id="125" depart="50.00">
        <route edges="7:3 3:1 1:0 0:9"/>
    </vehicle>
    <vehicle id="126" depart="50.40">
        <route edges="7:3 3:1"/>
    </vehicle>
    <vehicle id="127" depart="50.80">
        <route edges="8:2 2:0 0:1"/>
    </vehicle>
    <vehicle id="129" depart="51.60">
        <route edges="8:2 2:0 0:9 9:10"/>
    </vehicle>
    <vehicle id="133" depart="53.20">
        <route edges="3:1"/>
    </vehicle>
    <vehicle id="135" depart="54.00">
        <route edges="2:0 0:1 1:3 3:7"/>
    </vehicle>
    <vehicle id="136" depart="54.40">
        <route edges="2:0 0:1 1:3 3:7"/>
    </vehicle>
    <vehicle id="137" depart="54.80">
        <route edges="1:3 3:7"/>
    </vehicle>
    <vehicle id="139" depart="55.60">
        <route edges="5:1 1:3 3:7"/>
    </vehicle>
    <vehicle id="141" depart="56.40">
        <route edges="3:1 1:0 0:2 2:8"/>
    </vehicle>
    <vehicle id="146" depart="58.40">
        <route edges="10:9 9:0 0:1 1:3"/>
    </vehicle>
    <vehicle id="147" depart="58.80">
        <route edges="10:9 9:0 0:1 1:3 3:7"/>
    </vehicle>
    <vehicle id="148" depart="59.20">
        <route edges="7:3 3:1 1:0 0:2"/>
    </vehicle>
    <vehicle id="149" depart="59.60">
        <route edges="3:1 1:0 0:2"/>
    </vehicle>
    <vehicle id="151" depart="60.40">
        <route edges="9:0 0:1 1:3 3:7"/>
    </vehicle>
    <vehicle id="154" depart="61.60">
        <route edges="9:0 0:1 1:5 5:6"/>
    </vehicle>
    <vehicle id="156" depart="62.40">
        <route edges="8:2 2:0 0:1 1:3"/>
    </vehicle>
    <vehicle id="157" depart="62.80">
        <route edges="8:2 2:0 0:1 1:3"/>
    </vehicle>
    <vehicle id="159" depart="63.60">
        <route edges="3:1"/>
    </vehicle>
    <vehicle id="160" depart="64.00">
        <route edges="7:3 3:1 1:0 0:2 2:8"/>
    </vehicle>
    <vehicle id="161" depart="64.40">
        <route edges="1:3 3:7"/>
    </vehicle>
    <vehicle id="164" depart="65.60">
        <route edges="2:0 0:1 1:3 3:7"/>
    </vehicle>
    <vehicle id="166" depart="66.40">
        <route edges="6:5 5:1 1:3 3:7"/>
    </vehicle>
    <vehicle id="169" depart="67.60">
        <route edges="1:0 0:2"/>
    </vehicle>
    <vehicle id="171" depart="68.40">
        <route edges="10:9 9:0 0:2 2:8"/>
    </vehicle>
    <vehicle id="177" depart="70.80">
        <route edges="7:3 3:1"/>
    </vehicle>
    <vehicle id="178" depart="71.20">
        <route edges="2:0 0:1 1:5 5:6"/>
    </vehicle>
    <vehicle id="181" depart="72.40">
        <route edges="6:5 5:1 1:3 3:7"/>
    </vehicle>
    <vehicle id="182" depart="72.80">
        <route edges="5:1 1:0 0:2 2:8"/>
    </vehicle>
    <vehicle id="184" depart="73.60">
        <route edges="1:3"/>
    </vehicle>
    <vehicle id="187" depart="74.80">
        <route edges="0:1 1:3 3:7"/>
    </vehicle>
    <vehicle id="188" depart="75.20">
        <route edges="6:5 5:1 1:0 0:2"/>
    </vehicle>
    <vehicle id="192" depart="76.80">
        <route edges="10:9 9:0 0:1 1:5"/>
    </vehicle>
    <vehicle id="194" depart="77.60">
        <route edges="9:0 0:1 1:3 3:7"/>
    </vehicle>
    <vehicle id="195" depart="78.00">
        <route edges="7:3 3:1 1:0 0:2 2:8"/>
    </vehicle>
    <vehicle id="196" depart="78.40">
        <route edges="7:3 3:1 1:0"/>
    </vehicle>
    <vehicle id="200" depart="80.00">
        <route edges="1:0 0:9 9:10"/>
    </vehicle>
    <vehicle id="203" depart="81.20">
        <route edges="1:3 3:7"/>
    </vehicle>
    <vehicle id="204" depart="81.60">
        <route edges="8:2 2:0 0:1 1:3"/>
    </vehicle>
    <vehicle id="205" depart="82.00">
        <route edges="2:0 0:1 1:3"/>
    </vehicle>
    <vehicle id="207" depart="82.80">
        <route edges="0:1 1:5 5:6"/>
    </vehicle>
    <vehicle id="209" depart="83.60">
        <route edges="2:0 0:1"/>
    </vehicle>
    <vehicle id="210" depart="84.00">
        <route edges="7:3 3:1 1:0 0:2 2:8"/>
    </vehicle>
    <vehicle id="211" depart="84.40">
        <route edges="3:1 1:0 0:2 2:8"/>
    </vehicle>
    <vehicle id="214" depart="85.60">
        <route edges="7:3 3:1 1:5 5:6"/>
    </vehicle>
    <vehicle id="216" depart="86.40">
        <route edges="9:0"/>
    </vehicle>
    <vehicle id="219" depart="87.60">
        <route edges="7:3 3:1"/>
    </vehicle>
    <vehicle id="222" depart="88.80">
        <route edges="9:0 0:1 1:3 3:7"/>
    </vehicle>
    <vehicle id="223" depart="89.20">
        <route edges="0:1 1:5 5:6"/>
    </vehicle>
    <vehicle id="225" depart="90.00">
        <route edges="8:2 2:0 0:1 1:5 5:6"/>
    </vehicle>
    <vehicle id="226" depart="90.40">
        <route edges="8:2 2:0 0:1 1:3 3:7"/>
    </vehicle>
    <vehicle id="227" depart="90.80">
        <route edges="8:2 2:0 0:1 1:3"/>
    </vehicle>
    <vehicle id="230" depart="92.00">
        <route edges="0:2 2:8"/>
    </vehicle>
    <vehicle id="232" depart="92.80">
        <route edges="1:0 0:2 2:8"/>
    </vehicle>
    <vehicle id="235" depart="94.00">
        <route edges="0:1 1:3 3:7"/>
    </vehicle>
    <vehicle id="238" depart="95.20">
        <route edges="10:9 9:0 0:2 2:8"/>
    </vehicle>
    <vehicle id="239" depart="95.60">
        <route edges="8:2 2:0 0:1 1:3 3:7"/>
    </vehicle>
    <vehicle id="241" depart="96.40">
        <route edges="3:1 1:5"/>
    </vehicle>
    <vehicle id="242" depart="96.80">
        <route edges="6:5 5:1"/>
    </vehicle>
    <vehicle id="256" depart="102.40">
        <route edges="3:1 1:0 0:2 2:8"/>
    </vehicle>
    <vehicle id="257" depart="102.80">
        <route edges="7:3 3:1"/>
    </vehicle>
    <vehicle id="258" depart="103.20">
        <route edges="7:3 3:1 1:0 0:2 2:8"/>
    </vehicle>
    <vehicle id="259" depart="103.60">
        <route edges="7:3 3:1 1:5"/>
    </vehicle>
    <vehicle id="260" depart="104.00">
        <route edges="3:1 1:0 0:2 2:8"/>
    </vehicle>
    <vehicle id="262" depart="104.80">
        <route edges="8:2 2:0 0:1 1:3 3:7"/>
    </vehicle>
    <vehicle id="268" depart="107.20">
        <route edges="6:5 5:1 1:3 3:7"/>
    </vehicle>
    <vehicle id="269" depart="107.60">
        <route edges="7:3 3:1 1:5 5:6"/>
    </vehicle>
    <vehicle id="270" depart="108.00">
        <route edges="3:1"/>
    </vehicle>
    <vehicle id="271" depart="108.40">
        <route edges="0:2 2:8"/>
    </vehicle>
    <vehicle id="274" depart="109.60">
        <route edges="5:1 1:0 0:9"/>
    </vehicle>
    <vehicle id="276" depart="110.40">
        <route edges="7:3 3:1 1:0 0:9 9:10"/>
    </vehicle>
    <vehicle id="278" depart="111.20">
        <route edges="9:0 0:1 1:3 3:7"/>
    </vehicle>
    <vehicle id="280" depart="112.00">
        <route edges="2:0"/>
    </vehicle>
    <vehicle id="282" depart="112.80">
        <route edges="3:1 1:0 0:2 2:8"/>
    </vehicle>
    <vehicle id="283" depart="113.20">
        <route edges="5:1 1:3"/>
    </vehicle>
    <vehicle id="284" depart="113.60">
        <route edges="0:2 2:8"/>
    </vehicle>
    <vehicle id="285" depart="114.00">
        <route edges="1:0 0:2"/>
    </vehicle>
    <vehicle id="287" depart="114.80">
        <route edges="8:2 2:0 0:1 1:3 3:7"/>
    </vehicle>
    <vehicle id="288" depart="115.20">
        <route edges="2:0 0:1 1:3 3:7"/>
    </vehicle>
    <vehicle id="292" depart="116.80">
        <route edges="8:2 2:0 0:1"/>
    </vehicle>
    <vehicle id="296" depart="118.40">
        <route edges="2:0 0:1 1:3 3:7"/>
    </vehicle>
    <vehicle id="297" depart="118.80">
        <route edges="0:1 1:3"/>
    </vehicle>
    <vehicle id="298" depart="119.20">
        <route edges="7:3 3:1 1:0 0:9 9:10"/>
    </vehicle>
    <vehicle id="299" depart="119.60">
        <route edges="2:0 0:1 1:3"/>
    </vehicle>
    <vehicle id="301" depart="120.40">
        <route edges="3:1 1:5"/>
    </vehicle>
    <vehicle id="303" depart="121.20">
        <route edges="10:9 9:0 0:1 1:3 3:7"/>
    </vehicle>
    <vehicle id="307" depart="122.80">
        <route edges="3:1 1:0 0:2 2:8"/>
    </vehicle>
    <vehicle id="308" depart="123.20">
        <route edges="8:2 2:0 0:1 1:5"/>
    </vehicle>
    <vehicle id="309" depart="123.60">
        <route edges="9:0"/>
    </vehicle>
    <vehicle id="310" depart="124.00">
        <route edges="0:9 9:10"/>
    </vehicle>
    <vehicle id="311" depart="124.40">
        <route edges="1:3 3:7"/>
    </vehicle>
    <vehicle id="312" depart="124.80">
        <route edges="3:1 1:0 0:2 2:8"/>
    </vehicle>
    <vehicle id="313" depart="125.20">
        <route edges="8:2 2:0 0:1 1:3"/>
    </vehicle>
    <vehicle id="314" depart="125.60">
        <route edges="1:3 3:7"/>
    </vehicle>
    <vehicle id="316" depart="126.40">
        <route edges="3:1 1:0 0:2 2:8"/>
    </vehicle>
    <vehicle id="319" depart="127.60">
        <route edges="2:0 0:1"/>
    </vehicle>
    <vehicle id="320" depart="128.00">
        <route edges="6:5 5:1 1:0"/>
    </vehicle>
    <vehicle id="322" depart="128.80">
        <route edges="7:3 3:1 1:0 0:9"/>
    </vehicle>
    <vehicle id="323" depart="129.20">
        <route edges="8:2 2:0 0:1 1:3"/>
    </vehicle>
    <vehicle id="324" depart="129.60">
        <route edges="8:2 2:0 0:1 1:3 3:7"/>
    </vehicle>
    <vehicle id="326" depart="130.40">
        <route edges="8:2 2:0 0:9 9:10"/>
    </vehicle>
    <vehicle id="327" depart="130.80">
        <route edges="0:1 1:5"/>
    </vehicle>
    <vehicle id="328" depart="131.20">
        <route edges="6:5 5:1 1:3 3:7"/>
    </vehicle>
    <vehicle id="330" depart="132.00">
        <route edges="8:2 2:0"/>
    </vehicle>
    <vehicle id="332" depart="132.80">
        <route edges="10:9 9:0 0:2"/>
    </vehicle>
    <vehicle id="333" depart="133.20">
        <route edges="8:2 2:0 0:1 1:3 3:7"/>
    </vehicle>
    <vehicle id="337" depart="134.80">
        <route edges="5:1 1:0 0:2"/>
    </vehicle>
    <vehicle id="339" depart="135.60">
        <route edges="2:0 0:1 1:5"/>
    </vehicle>
    <vehicle id="340" depart="136.00">
        <route edges="7:3 3:1 1:0 0:2 2:8"/>
    </vehicle>
    <vehicle id="342" depart="136.80">
        <route edges="5:1 1:3 3:7"/>
    </vehicle>
    <vehicle id="345" depart="138.00">
        <route edges="1:3 3:7"/>
    </vehicle>
    <vehicle id="346" depart="138.40">
        <route edges="7:3 3:1 1:0 0:2 2:8"/>
    </vehicle>
    <vehicle id="347" depart="138.80">
        <route edges="10:9 9:0 0:2 2:8"/>
    </vehicle>
    <vehicle id="349" depart="139.60">
        <route edges="8:2 2:0 0:1 1:5 5:6"/>
    </vehicle>
    <vehicle id="350" depart="140.00">
        <route edges="7:3 3:1 1:0 0:2"/>
    </vehicle>
    <vehicle id="354" depart="141.60">
        <route edges="6:5 5:1 1:3 3:7"/>
    </vehicle>
    <vehicle id="358" depart="143.20">
        <route edges="7:3 3:1 1:5"/>
    </vehicle>
    <vehicle id="360" depart="144.00">
        <route edges="6:5 5:1 1:0 0:2 2:8"/>
    </vehicle>
    <vehicle id="362" depart="144.80">
        <route edges="9:0 0:2"/>
    </vehicle>
    <vehicle id="363" depart="145.20">
        <route edges="8:2 2:0"/>
    </vehicle>
    <vehicle id="366" depart="146.40">
        <route edges="8:2 2:0 0:9 9:10"/>
    </vehicle>
    <vehicle id="368" depart="147.20">
        <route edges="7:3 3:1 1:0 0:2 2:8"/>
    </vehicle>
    <vehicle id="371" depart="148.40">
        <route edges="8:2 2:0"/>
    </vehicle>
    <vehicle id="372" depart="148.80">
        <route edges="8:2 2:0"/>
    </vehicle>
    <vehicle id="373" depart="149.20">
        <route edges="3:1 1:0 0:2"/>
    </vehicle>
    <vehicle id="374" depart="149.60">
        <route edges="8:2 2:0 0:1 1:5 5:6"/>
    </vehicle>
    <vehicle id="375" depart="150.00">
        <route edges="7:3 3:1 1:0 0:9 9:10"/>
    </vehicle>
    <vehicle id="378" depart="151.20">
        <route edges="2:0 0:1 1:3"/>
    </vehicle>
    <vehicle id="380" depart="152.00">
        <route edges="10:9 9:0 0:1 1:3 3:7"/>
    </vehicle>
    <vehicle id="381" depart="152.40">
        <route edges="9:0"/>
    </vehicle>
    <vehicle id="383" depart="153.20">
        <route edges="10:9 9:0 0:1 1:5 5:6"/>
    </vehicle>
    <vehicle id="386" depart="154.40">
        <route edges="3:1 1:0 0:2"/>
    </vehicle>
    <vehicle id="388" depart="155.20">
        <route edges="9:0 0:1"/>
    </vehicle>
    <vehicle id="389" depart="155.60">
        <route edges="8:2 2:0 0:1 1:3"/>
    </vehicle>
    <vehicle id="393" depart="157.20">
        <route edges="3:1 1:0 0:9"/>
    </vehicle>
    <vehicle id="394" depart="157.60">
        <route edges="2:0"/>
    </vehicle>
    <vehicle id="398" depart="159.20">
        <route edges="7:3 3:1 1:0 0:2 2:8"/>
    </vehicle>
    <vehicle id="399" depart="159.60">
        <route edges="9:0"/>
    </vehicle>
    <vehicle id="402" depart="160.80">
        <route edges="7:3 3:1"/>
    </vehicle>
    <vehicle id="406" depart="162.40">
        <route edges="6:5 5:1 1:0 0:2 2:8"/>
    </vehicle>
    <vehicle id="409" depart="163.60">
        <route edges="9:0 0:1 1:3"/>
    </vehicle>
    <vehicle id="410" depart="164.00">
        <route edges="8:2 2:0 0:1"/>
    </vehicle>
    <vehicle id="411" depart="164.40">
        <route edges="8:2 2:0 0:1"/>
    </vehicle>
    <vehicle id="412" depart="164.80">
        <route edges="7:3 3:1 1:0 0:2 2:8"/>
    </vehicle>
    <vehicle id="413" depart="165.20">
        <route edges="3:1 1:0 0:2 2:8"/>
    </vehicle>
    <vehicle id="414" depart="165.60">
        <route edges="0:2 2:8"/>
    </vehicle>
    <vehicle id="415" depart="166.00">
        <route edges="2:0 0:1 1:5 5:6"/>
    </vehicle>
    <vehicle id="417" depart="166.80">
        <route edges="8:2 2:0 0:1 1:5"/>
    </vehicle>
    <vehicle id="419" depart="167.60">
        <route edges="5:1 1:0 0:9 9:10"/>
    </vehicle>
    <vehicle id="420" depart="168.00">
        <route edges="6:5 5:1 1:0 0:2 2:8"/>
    </vehicle>
    <vehicle id="421" depart="168.40">
        <route edges="8:2 2:0 0:1 1:3 3:7"/>
    </vehicle>
    <vehicle id="425" depart="170.00">
        <route edges="8:2 2:0 0:1"/>
    </vehicle>
    <vehicle id="426" depart="170.40">
        <route edges="7:3 3:1 1:0"/>
    </vehicle>
    <vehicle id="427" depart="170.80">
        <route edges="3:1"/>
    </vehicle>
    <vehicle id="429" depart="171.60">
        <route edges="9:0 0:1 1:3 3:7"/>
    </vehicle>
    <vehicle id="432" depart="172.80">
        <route edges="1:0 0:2"/>
    </vehicle>
    <vehicle id="436" depart="174.40">
        <route edges="1:3 3:7"/>
    </vehicle>
    <vehicle id="439" depart="175.60">
        <route edges="2:0 0:1 1:5 5:6"/>
    </vehicle>
    <vehicle id="440" depart="176.00">
        <route edges="0:1 1:3"/>
    </vehicle>
    <vehicle id="445" depart="178.00">
        <route edges="8:2 2:0 0:1 1:3 3:7"/>
    </vehicle>
    <vehicle id="446" depart="178.40">
        <route edges="2:0"/>
    </vehicle>
    <vehicle id="447" depart="178.80">
        <route edges="3:1 1:0 0:9 9:10"/>
    </vehicle>
    <vehicle id="448" depart="179.20">
        <route edges="6:5 5:1 1:0 0:2 2:8"/>
    </vehicle>
    <vehicle id="451" depart="180.40">
        <route edges="6:5 5:1 1:3 3:7"/>
    </vehicle>
    <vehicle id="455" depart="182.00">
        <route edges="8:2 2:0 0:1 1:5 5:6"/>
    </vehicle>
    <vehicle id="456" depart="182.40">
        <route edges="2:0 0:1 1:3"/>
    </vehicle>
    <vehicle id="459" depart="183.60">
        <route edges="5:1 1:0 0:2 2:8"/>
    </vehicle>
    <vehicle id="463" depart="185.20">
        <route edges="3:1 1:0 0:2"/>
    </vehicle>
    <vehicle id="464" depart="185.60">
        <route edges="6:5 5:1 1:0 0:2 2:8"/>
    </vehicle>
    <vehicle id="465" depart="186.00">
        <route edges="8:2 2:0 0:9 9:10"/>
    </vehicle>
    <vehicle id="466" depart="186.40">
        <route edges="7:3 3:1 1:0 0:2"/>
    </vehicle>
    <vehicle id="471" depart="188.40">
        <route edges="7:3 3:1 1:0 0:2 2:8"/>
    </vehicle>
    <vehicle id="475" depart="190.00">
        <route edges="1:3"/>
    </vehicle>
    <vehicle id="478" depart="191.20">
        <route edges="7:3 3:1 1:0 0:2"/>
    </vehicle>
    <vehicle id="479" depart="191.60">
        <route edges="2:0 0:1 1:5 5:6"/>
    </vehicle>
    <vehicle id="480" depart="192.00">
        <route edges="2:0 0:1 1:3 3:7"/>
    </vehicle>
    <vehicle id="482" depart="192.80">
        <route edges="10:9 9:0 0:2"/>
    </vehicle>
    <vehicle id="483" depart="193.20">
        <route edges="0:2 2:8"/>
    </vehicle>
    <vehicle id="484" depart="193.60">
        <route edges="8:2 2:0"/>
    </vehicle>
    <vehicle id="485" depart="194.00">
        <route edges="1:3 3:7"/>
    </vehicle>
    <vehicle id="488" depart="195.20">
        <route edges="7:3 3:1 1:0 0:9"/>
    </vehicle>
    <vehicle id="489" depart="195.60">
        <route edges="8:2 2:0 0:1 1:3 3:7"/>
    </vehicle>
    <vehicle id="490" depart="196.00">
        <route edges="6:5 5:1 1:0 0:9 9:10"/>
    </vehicle>
    <vehicle id="491" depart="196.40">
        <route edges="2:0 0:1 1:3"/>
    </vehicle>
    <vehicle id="494" depart="197.60">
        <route edges="3:1 1:0"/>
    </vehicle>
    <vehicle id="495" depart="198.00">
        <route edges="7:3 3:1"/>
    </vehicle>
    <vehicle id="496" depart="198.40">
        <route edges="6:5 5:1 1:0 0:2 2:8"/>
    </vehicle>
    <vehicle id="501" depart="200.40">
        <route edges="7:3 3:1 1:0 0:2 2:8"/>
    </vehicle>
    <vehicle id="502" depart="200.80">
        <route edges="0:2 2:8"/>
    </vehicle>
    <vehicle id="503" depart="201.20">
        <route edges="8:2 2:0 0:1 1:5 5:6"/>
    </vehicle>
    <vehicle id="507" depart="202.80">
        <route edges="7:3 3:1 1:5 5:6"/>
    </vehicle>
    <vehicle id="508" depart="203.20">
        <route edges="10:9 9:0"/>
    </vehicle>
    <vehicle id="510" depart="204.00">
        <route edges="6:5 5:1 1:0 0:2 2:8"/>
    </vehicle>
    <vehicle id="513" depart="205.20">
        <route edges="7:3 3:1 1:0 0:2"/>
    </vehicle>
    <vehicle id="514" depart="205.60">
        <route edges="6:5 5:1 1:0"/>
    </vehicle>
    <vehicle id="519" depart="207.60">
        <route edges="10:9 9:0 0:2 2:8"/>
    </vehicle>
    <vehicle id="521" depart="208.40">
        <route edges="9:0 0:1 1:3"/>
    </vehicle>
    <vehicle id="522" depart="208.80">
        <route edges="2:0 0:1 1:5 5:6"/>
    </vehicle>
    <vehicle id="525" depart="210.00">
        <route edges="10:9 9:0 0:2"/>
    </vehicle>
    <vehicle id="526" depart="210.40">
        <route edges="8:2 2:0 0:1 1:5"/>
    </vehicle>
    <vehicle id="532" depart="212.80">
        <route edges="7:3 3:1 1:0 0:2 2:8"/>
    </vehicle>
    <vehicle id="534" depart="213.60">
        <route edges="8:2 2:0 0:1 1:5"/>
    </vehicle>
    <vehicle id="535" depart="214.00">
        <route edges="2:0 0:1 1:3 3:7"/>
    </vehicle>
    <vehicle id="537" depart="214.80">
        <route edges="2:0 0:9 9:10"/>
    </vehicle>
    <vehicle id="538" depart="215.20">
        <route edges="0:2 2:8"/>
    </vehicle>
    <vehicle id="540" depart="216.00">
        <route edges="8:2 2:0 0:1 1:5 5:6"/>
    </vehicle>
    <vehicle id="541" depart="216.40">
        <route edges="0:2 2:8"/>
    </vehicle>
    <vehicle id="543" depart="217.20">
        <route edges="3:1 1:0 0:2 2:8"/>
    </vehicle>
    <vehicle id="545" depart="218.00">
        <route edges="8:2 2:0 0:9"/>
    </vehicle>
    <vehicle id="551" depart="220.40">
        <route edges="6:5 5:1 1:0 0:2 2:8"/>
    </vehicle>
    <vehicle id="552" depart="220.80">
        <route edges="9:0 0:1 1:3 3:7"/>
    </vehicle>
    <vehicle id="553" depart="221.20">
        <route edges="7:3 3:1 1:0"/>
    </vehicle>
    <vehicle id="554" depart="221.60">
        <route edges="0:2 2:8"/>
    </vehicle>
    <vehicle id="556" depart="222.40">
        <route edges="8:2 2:0 0:1 1:3 3:7"/>
    </vehicle>
    <vehicle id="558" depart="223.20">
        <route edges="1:0 0:9 9:10"/>
    </vehicle>
    <vehicle id="565" depart="226.00">
        <route edges="0:2 2:8"/>
    </vehicle>
    <vehicle id="567" depart="226.80">
        <route edges="1:0"/>
    </vehicle>
    <vehicle id="572" depart="228.80">
        <route edges="2:0 0:1 1:3 3:7"/>
    </vehicle>
    <vehicle id="575" depart="230.00">
        <route edges="6:5 5:1 1:0 0:2 2:8"/>
    </vehicle>
    <vehicle id="576" depart="230.40">
        <route edges="10:9 9:0 0:2 2:8"/>
    </vehicle>
    <vehicle id="577" depart="230.80">
        <route edges="8:2 2:0 0:1 1:3"/>
    </vehicle>
    <vehicle id="578" depart="231.20">
        <route edges="5:1 1:3 3:7"/>
    </vehicle>
    <vehicle id="583" depart="233.20">
        <route edges="6:5 5:1 1:3 3:7"/>
    </vehicle>
    <vehicle id="584" depart="233.60">
        <route edges="9:0 0:1 1:5 5:6"/>
    </vehicle>
    <vehicle id="586" depart="234.40">
        <route edges="2:0 0:1 1:3 3:7"/>
    </vehicle>
    <vehicle id="587" depart="234.80">
        <route edges="10:9 9:0 0:1 1:3 3:7"/>
    </vehicle>
    <vehicle id="590" depart="236.00">
        <route edges="0:1 1:3"/>
    </vehicle>
    <vehicle id="591" depart="236.40">
        <route edges="0:9 9:10"/>
    </vehicle>
    <vehicle id="592" depart="236.80">
        <route edges="7:3 3:1 1:0 0:2 2:8"/>
    </vehicle>
    <vehicle id="593" depart="237.20">
        <route edges="7:3 3:1 1:0 0:9 9:10"/>
    </vehicle>
    <vehicle id="594" depart="237.60">
        <route edges="7:3 3:1 1:5 5:6"/>
    </vehicle>
    <vehicle id="595" depart="238.00">
        <route edges="1:3 3:7"/>
    </vehicle>
    <vehicle id="596" depart="238.40">
        <route edges="5:1 1:0 0:2 2:8"/>
    </vehicle>
    <vehicle id="599" depart="239.60">
        <route edges="6:5 5:1 1:3 3:7"/>
    </vehicle>
    <vehicle id="600" depart="240.00">
        <route edges="7:3 3:1 1:5 5:6"/>
    </vehicle>
    <vehicle id="604" depart="241.60">
        <route edges="7:3 3:1 1:0"/>
    </vehicle>
    <vehicle id="606" depart="242.40">
        <route edges="8:2 2:0 0:1 1:3 3:7"/>
    </vehicle>
    <vehicle id="607" depart="242.80">
        <route edges="5:1 1:3 3:7"/>
    </vehicle>
    <vehicle id="608" depart="243.20">
        <route edges="10:9 9:0 0:1 1:3 3:7"/>
    </vehicle>
    <vehicle id="609" depart="243.60">
        <route edges="1:3 3:7"/>
    </vehicle>
    <vehicle id="610" depart="244.00">
        <route edges="10:9 9:0 0:1 1:3 3:7"/>
    </vehicle>
    <vehicle id="611" depart="244.40">
        <route edges="7:3 3:1 1:0 0:9 9:10"/>
    </vehicle>
    <vehicle id="612" depart="244.80">
        <route edges="8:2 2:0"/>
    </vehicle>
    <vehicle id="613" depart="245.20">
        <route edges="7:3 3:1"/>
    </vehicle>
    <vehicle id="614" depart="245.60">
        <route edges="10:9 9:0 0:1 1:5"/>
    </vehicle>
    <vehicle id="615" depart="246.00">
        <route edges="5:1 1:3 3:7"/>
    </vehicle>
    <vehicle id="616" depart="246.40">
        <route edges="8:2 2:0 0:9 9:10"/>
    </vehicle>
    <vehicle id="617" depart="246.80">
        <route edges="6:5 5:1 1:0 0:2 2:8"/>
    </vehicle>
    <vehicle id="618" depart="247.20">
        <route edges="2:0 0:1 1:3"/>
    </vehicle>
    <vehicle id="619" depart="247.60">
        <route edges="2:0 0:1 1:3 3:7"/>
    </vehicle>
    <vehicle id="620" depart="248.00">
        <route edges="7:3 3:1 1:0"/>
    </vehicle>
    <vehicle id="621" depart="248.40">
        <route edges="8:2 2:0 0:1 1:5"/>
    </vehicle>