<?xml version="1.0" encoding="UTF-8"?>

<!-- generated on Thu Feb 13 14:16:40 2014 by SUMO duarouter Version 0.18.0
<?xml version="1.0" encoding="UTF-8"?>

<configuration xmlns:xsi="http://www.w3.org/2001/XMLSchema-instance" xsi:noNamespaceSchemaLocation="http://sumo.sf.net/xsd/duarouterConfiguration.xsd">

    <input>
        <net-file value="twinT.net.xml"/>
        <trip-files value="experimentos/twinT.p1.0.10.trips.xml"/>
    </input>

    <output>
        <output-file value="experimentos/twinT.p1.0.10.rou.xml"/>
    </output>

    <processing>
        <ignore-errors value="true"/>
    </processing>

    <random_number>
        <random value="true"/>
    </random_number>

</configuration>
-->

<routes xmlns:xsi="http://www.w3.org/2001/XMLSchema-instance" xsi:noNamespaceSchemaLocation="http://sumo.sf.net/xsd/routes_file.xsd">
    <vehicle id="2" depart="2.00">
        <route edges="7:3 3:1 1:0 0:2"/>
    </vehicle>
    <vehicle id="3" depart="3.00">
        <route edges="0:1 1:3"/>
    </vehicle>
    <vehicle id="6" depart="6.00">
        <route edges="0:1 1:3 3:7"/>
    </vehicle>
    <vehicle id="9" depart="9.00">
        <route edges="9:0 0:1 1:5 5:6"/>
    </vehicle>
    <vehicle id="10" depart="10.00">
        <route edges="8:2 2:0 0:1 1:3 3:7"/>
    </vehicle>
    <vehicle id="11" depart="11.00">
        <route edges="10:9 9:0 0:1 1:5 5:6"/>
    </vehicle>
    <vehicle id="15" depart="15.00">
        <route edges="7:3 3:1 1:5 5:6"/>
    </vehicle>
    <vehicle id="16" depart="16.00">
        <route edges="8:2 2:0 0:1 1:3"/>
    </vehicle>
    <vehicle id="17" depart="17.00">
        <route edges="0:2"/>
    </vehicle>
    <vehicle id="18" depart="18.00">
        <route edges="5:1 1:0 0:2"/>
    </vehicle>
    <vehicle id="20" depart="20.00">
        <route edges="9:0 0:1 1:3 3:7"/>
    </vehicle>
    <vehicle id="24" depart="24.00">
        <route edges="0:2 2:8"/>
    </vehicle>
    <vehicle id="29" depart="29.00">
        <route edges="6:5 5:1 1:3 3:7"/>
    </vehicle>
    <vehicle id="31" depart="31.00">
        <route edges="2:0 0:1 1:3 3:7"/>
    </vehicle>
    <vehicle id="32" depart="32.00">
        <route edges="2:0 0:1 1:5 5:6"/>
    </vehicle>
    <vehicle id="33" depart="33.00">
        <route edges="6:5 5:1 1:0 0:9 9:10"/>
    </vehicle>
    <vehicle id="39" depart="39.00">
        <route edges="8:2 2:0 0:1 1:3 3:7"/>
    </vehicle>
    <vehicle id="40" depart="40.00">
        <route edges="3:1 1:0 0:9 9:10"/>
    </vehicle>
    <vehicle id="41" depart="41.00">
        <route edges="8:2 2:0 0:9"/>
    </vehicle>
    <vehicle id="44" depart="44.00">
        <route edges="7:3 3:1 1:0 0:2 2:8"/>
    </vehicle>
    <vehicle id="47" depart="47.00">
        <route edges="8:2 2:0"/>
    </vehicle>
    <vehicle id="48" depart="48.00">
        <route edges="7:3 3:1 1:5 5:6"/>
    </vehicle>
    <vehicle id="52" depart="52.00">
        <route edges="0:2 2:8"/>
    </vehicle>
    <vehicle id="53" depart="53.00">
        <route edges="8:2 2:0 0:1"/>
    </vehicle>
    <vehicle id="58" depart="58.00">
        <route edges="8:2 2:0 0:1 1:3 3:7"/>
    </vehicle>
    <vehicle id="59" depart="59.00">
        <route edges="7:3 3:1"/>
    </vehicle>
    <vehicle id="62" depart="62.00">
        <route edges="6:5 5:1 1:0 0:2"/>
    </vehicle>
    <vehicle id="63" depart="63.00">
        <route edges="0:2"/>
    </vehicle>
    <vehicle id="64" depart="64.00">
        <route edges="3:1 1:0 0:2 2:8"/>
    </vehicle>
    <vehicle id="65" depart="65.00">
        <route edges="9:0 0:1 1:3 3:7"/>
    </vehicle>
    <vehicle id="66" depart="66.00">
        <route edges="0:2"/>
    </vehicle>
    <vehicle id="68" depart="68.00">
        <route edges="0:1"/>
    </vehicle>
    <vehicle id="71" depart="71.00">
        <route edges="7:3 3:1 1:0 0:2 2:8"/>
    </vehicle>
    <vehicle id="72" depart="72.00">
        <route edges="3:1 1:0 0:2 2:8"/>
    </vehicle>
    <vehicle id="73" depart="73.00">
        <route edges="7:3 3:1 1:0 0:2"/>
    </vehicle>
    <vehicle id="74" depart="74.00">
        <route edges="1:0 0:2 2:8"/>
    </vehicle>
    <vehicle id="75" depart="75.00">
        <route edges="7:3 3:1 1:0 0:2"/>
    </vehicle>
    <vehicle id="76" depart="76.00">
        <route edges="2:0 0:1 1:5"/>
    </vehicle>
    <vehicle id="79" depart="79.00">
        <route edges="5:1 1:0 0:2 2:8"/>
    </vehicle>
    <vehicle id="80" depart="80.00">
        <route edges="9:0 0:1 1:3"/>
    </vehicle>
    <vehicle id="84" depart="84.00">
        <route edges="2:0 0:1"/>
    </vehicle>
    <vehicle id="86" depart="86.00">
        <route edges="3:1 1:0 0:2"/>
    </vehicle>
    <vehicle id="87" depart="87.00">
        <route edges="10:9 9:0 0:1"/>
    </vehicle>
    <vehicle id="89" depart="89.00">
        <route edges="7:3 3:1 1:0 0:2 2:8"/>
    </vehicle>
    <vehicle id="91" depart="91.00">
        <route edges="8:2 2:0 0:1 1:3 3:7"/>
    </vehicle>
    <vehicle id="92" depart="92.00">
        <route edges="6:5 5:1 1:0 0:2 2:8"/>
    </vehicle>
    <vehicle id="95" depart="95.00">
        <route edges="10:9 9:0 0:1 1:3 3:7"/>
    </vehicle>
    <vehicle id="100" depart="100.00">
        <route edges="0:2"/>
    </vehicle>
    <vehicle id="101" depart="101.00">
        <route edges="8:2 2:0 0:1 1:3 3:7"/>
    </vehicle>
    <vehicle id="105" depart="105.00">
        <route edges="0:1 1:5 5:6"/>
    </vehicle>
    <vehicle id="106" depart="106.00">
        <route edges="8:2 2:0"/>
    </vehicle>
    <vehicle id="109" depart="109.00">
        <route edges="8:2 2:0 0:1 1:3 3:7"/>
    </vehicle>
    <vehicle id="112" depart="112.00">
        <route edges="3:1 1:5 5:6"/>
    </vehicle>
    <vehicle id="114" depart="114.00">
        <route edges="2:0 0:1 1:5 5:6"/>
    </vehicle>
    <vehicle id="116" depart="116.00">
        <route edges="1:0"/>
    </vehicle>
    <vehicle id="117" depart="117.00">
        <route edges="0:2 2:8"/>
    </vehicle>
    <vehicle id="119" depart="119.00">
        <route edges="0:2 2:8"/>
    </vehicle>
    <vehicle id="120" depart="120.00">
        <route edges="10:9 9:0 0:1"/>
    </vehicle>
    <vehicle id="121" depart="121.00">
        <route edges="1:0 0:9"/>
    </vehicle>
    <vehicle id="122" depart="122.00">
        <route edges="1:0 0:2 2:8"/>
    </vehicle>
    <vehicle id="124" depart="124.00">
        <route edges="1:0"/>
    </vehicle>
    <vehicle id="129" depart="129.00">
        <route edges="8:2 2:0"/>
    </vehicle>
    <vehicle id="130" depart="130.00">
        <route edges="6:5 5:1 1:3 3:7"/>
    </vehicle>
    <vehicle id="131" depart="131.00">
        <route edges="6:5 5:1 1:3 3:7"/>
    </vehicle>
    <vehicle id="132" depart="132.00">
        <route edges="8:2 2:0"/>
    </vehicle>
    <vehicle id="133" depart="133.00">
        <route edges="7:3 3:1 1:0"/>
    </vehicle>
    <vehicle id="134" depart="134.00">
        <route edges="0:2 2:8"/>
    </vehicle>
    <vehicle id="135" depart="135.00">
        <route edges="7:3 3:1 1:0"/>
    </vehicle>
    <vehicle id="137" depart="137.00">
        <route edges="8:2 2:0 0:1 1:3 3:7"/>
    </vehicle>
    <vehicle id="144" depart="144.00">
        <route edges="7:3 3:1 1:0 0:2 2:8"/>
    </vehicle>
    <vehicle id="147" depart="147.00">
        <route edges="8:2 2:0 0:1 1:3 3:7"/>
    </vehicle>
    <vehicle id="149" depart="149.00">
        <route edges="5:1 1:0 0:9"/>
    </vehicle>
    <vehicle id="150" depart="150.00">
        <route edges="8:2 2:0 0:9 9:10"/>
    </vehicle>
    <vehicle id="152" depart="152.00">
        <route edges="6:5 5:1 1:0 0:2 2:8"/>
    </vehicle>
    <vehicle id="154" depart="154.00">
        <route edges="8:2 2:0 0:1 1:3 3:7"/>
    </vehicle>
    <vehicle id="155" depart="155.00">
        <route edges="8:2 2:0 0:1 1:5"/>
    </vehicle>
    <vehicle id="157" depart="157.00">
        <route edges="8:2 2:0"/>
    </vehicle>
    <vehicle id="161" depart="161.00">
        <route edges="3:1 1:0 0:2 2:8"/>
    </vehicle>
    <vehicle id="163" depart="163.00">
        <route edges="8:2 2:0 0:1 1:3"/>
    </vehicle>
    <vehicle id="165" depart="165.00">
        <route edges="5:1 1:0 0:2 2:8"/>
    </vehicle>
    <vehicle id="166" depart="166.00">
        <route edges="7:3 3:1 1:5"/>
    </vehicle>
    <vehicle id="168" depart="168.00">
        <route edges="10:9 9:0 0:1"/>
    </vehicle>
    <vehicle id="169" depart="169.00">
        <route edges="2:0 0:1 1:3 3:7"/>
    </vehicle>
    <vehicle id="171" depart="171.00">
        <route edges="8:2 2:0 0:1 1:3"/>
    </vehicle>
    <vehicle id="172" depart="172.00">
        <route edges="2:0 0:9 9:10"/>
    </vehicle>
    <vehicle id="175" depart="175.00">
        <route edges="6:5 5:1 1:0"/>
    </vehicle>
    <vehicle id="177" depart="177.00">
        <route edges="7:3 3:1 1:5"/>
    </vehicle>
    <vehicle id="178" depart="178.00">
        <route edges="0:1 1:3"/>
    </vehicle>
    <vehicle id="186" depart="186.00">
        <route edges="7:3 3:1 1:0 0:9"/>
    </vehicle>
    <vehicle id="193" depart="193.00">
        <route edges="8:2 2:0 0:1 1:5 5:6"/>
    </vehicle>
    <vehicle id="195" depart="195.00">
        <route edges="2:0 0:1 1:3"/>
    </vehicle>
    <vehicle id="197" depart="197.00">
        <route edges="10:9 9:0 0:1 1:5 5:6"/>
    </vehicle>
    <vehicle id="199" depart="199.00">
        <route edges="2:0"/>
    </vehicle>
    <vehicle id="200" depart="200.00">
        <route edges="1:0 0:2 2:8"/>
    </vehicle>
    <vehicle id="201" depart="201.00">
        <route edges="2:0 0:1"/>
    </vehicle>
    <vehicle id="204" depart="204.00">
        <route edges="7:3 3:1 1:0 0:2 2:8"/>
    </vehicle>
    <vehicle id="207" depart="207.00">
        <route edges="3:1 1:0 0:9"/>
    </vehicle>
    <vehicle id="208" depart="208.00">
        <route edges="0:2 2:8"/>
    </vehicle>
    <vehicle id="209" depart="209.00">
        <route edges="7:3 3:1 1:0 0:9 9:10"/>
    </vehicle>
    <vehicle id="212" depart="212.00">
        <route edges="6:5 5:1 1:0 0:9"/>
    </vehicle>
    <vehicle id="219" depart="219.00">
        <route edges="10:9 9:0"/>
    </vehicle>
    <vehicle id="221" depart="221.00">
        <route edges="0:9 9:10"/>
    </vehicle>
    <vehicle id="227" depart="227.00">
        <route edges="6:5 5:1 1:3 3:7"/>
    </vehicle>
    <vehicle id="230" depart="230.00">
        <route edges="0:1 1:5 5:6"/>
    </vehicle>
    <vehicle id="231" depart="231.00">
        <route edges="7:3 3:1"/>
    </vehicle>
    <vehicle id="232" depart="232.00">
        <route edges="8:2 2:0"/>
    </vehicle>
    <vehicle id="234" depart="234.00">
        <route edges="10:9 9:0 0:1 1:5 5:6"/>
    </vehicle>
    <vehicle id="235" depart="235.00">
        <route edges="7:3 3:1"/>
    </vehicle>
    <vehicle id="238" depart="238.00">
        <route edges="9:0 0:2 2:8"/>
    </vehicle>
    <vehicle id="244" depart="244.00">
        <route edges="7:3 3:1"/>
    </vehicle>
    <vehicle id="245" depart="245.00">
        <route edges="0:2 2:8"/>
    </vehicle>
    <vehicle id="246" depart="246.00">
        <route edges="2:0 0:1"/>
    </vehicle>
    <vehicle id="247" depart="247.00">
        <route edges="1:0 0:9"/>
    </vehicle>
    <vehicle id="248" depart="248.00">
        <route edges="8:2 2:0 0:1 1:5"/>
    </vehicle>
    <vehicle id="249" depart="249.00">
        <route edges="0:2 2:8"/>
    </vehicle>
    <vehicle id="251" depart="251.00">
        <route edges="3:1 1:5 5:6"/>
    </vehicle>
    <vehicle id="252" depart="252.00">
        <route edges="8:2 2:0 0:1 1:3 3:7"/>
    </vehicle>
    <vehicle id="255" depart="255.00">
        <route edges="7:3 3:1 1:0 0:9"/>
    </vehicle>
    <vehicle id="258" depart="258.00">
        <route edges="8:2 2:0 0:1 1:5"/>
    </vehicle>
    <vehicle id="259" depart="259.00">
        <route edges="8:2 2:0 0:9 9:10"/>
    </vehicle>
    <vehicle id="260" depart="260.00">
        <route edges="8:2 2:0 0:1 1:3 3:7"/>
    </vehicle>
    <vehicle id="262" depart="262.00">
        <route edges="0:1"/>
    </vehicle>
    <vehicle id="264" depart="264.00">
        <route edges="7:3 3:1 1:5"/>
    </vehicle>
    <vehicle id="267" depart="267.00">
        <route edges="9:0 0:2 2:8"/>
    </vehicle>
    <vehicle id="270" depart="270.00">
        <route edges="8:2 2:0 0:1 1:3 3:7"/>
    </vehicle>
    <vehicle id="273" depart="273.00">
        <route edges="9:0 0:2"/>
    </vehicle>
    <vehicle id="275" depart="275.00">
        <route edges="2:0 0:1 1:3"/>
    </vehicle>
    <vehicle id="278" depart="278.00">
        <route edges="9:0 0:1 1:3"/>
    </vehicle>
    <vehicle id="279" depart="279.00">
        <route edges="8:2 2:0"/>
    </vehicle>
    <vehicle id="280" depart="280.00">
        <route edges="3:1 1:5"/>
    </vehicle>
    <vehicle id="281" depart="281.00">
        <route edges="8:2 2:0 0:1 1:3"/>
    </vehicle>
    <vehicle id="283" depart="283.00">
        <route edges="8:2 2:0 0:1 1:3 3:7"/>
    </vehicle>
    <vehicle id="287" depart="287.00">
        <route edges="6:5 5:1 1:3 3:7"/>
    </vehicle>
    <vehicle id="288" depart="288.00">
        <route edges="7:3 3:1 1:0 0:9 9:10"/>
    </vehicle>
    <vehicle id="289" depart="289.00">
        <route edges="1:0 0:2 2:8"/>
    </vehicle>
    <vehicle id="291" depart="291.00">
        <route edges="10:9 9:0 0:1 1:5 5:6"/>
    </vehicle>
    <vehicle id="294" depart="294.00">
        <route edges="7:3 3:1 1:5 5:6"/>
    </vehicle>
    <vehicle id="296" depart="296.00">
        <route edges="2:0 0:9"/>
    </vehicle>
    <vehicle id="297" depart="297.00">
        <route edges="3:1 1:0 0:2"/>
    </vehicle>
    <vehicle id="298" depart="298.00">
        <route edges="7:3 3:1 1:5 5:6"/>
    </vehicle>
    <vehicle id="304" depart="304.00">
        <route edges="1:3 3:7"/>
    </vehicle>
    <vehicle id="309" depart="309.00">
        <route edges="0:2 2:8"/>
    </vehicle>
    <vehicle id="313" depart="313.00">
        <route edges="3:1 1:5 5:6"/>
    </vehicle>
    <vehicle id="314" depart="314.00">
        <route edges="2:0 0:9 9:10"/>
    </vehicle>
    <vehicle id="315" depart="315.00">
        <route edges="6:5 5:1 1:3 3:7"/>
    </vehicle>
    <vehicle id="319" depart="319.00">
        <route edges="6:5 5:1 1:0 0:9"/>
    </vehicle>
    <vehicle id="321" depart="321.00">
        <route edges="8:2 2:0 0:1 1:5 5:6"/>
    </vehicle>
    <vehicle id="322" depart="322.00">
        <route edges="6:5 5:1 1:0 0:2 2:8"/>
    </vehicle>
    <vehicle id="323" depart="323.00">
        <route edges="10:9 9:0 0:2 2:8"/>
    </vehicle>
    <vehicle id="325" depart="325.00">
        <route edges="8:2 2:0 0:1 1:5 5:6"/>
    </vehicle>
    <vehicle id="327" depart="327.00">
        <route edges="3:1 1:0 0:9 9:10"/>
    </vehicle>
    <vehicle id="328" depart="328.00">
        <route edges="9:0 0:1 1:3"/>
    </vehicle>
    <vehicle id="330" depart="330.00">
        <route edges="8:2 2:0 0:1 1:3"/>
    </vehicle>
    <vehicle id="332" depart="332.00">
        <route edges="9:0 0:1 1:5 5:6"/>
    </vehicle>
    <vehicle id="333" depart="333.00">
        <route edges="6:5 5:1 1:0 0:2 2:8"/>
    </vehicle>
    <vehicle id="334" depart="334.00">
        <route edges="0:1 1:3 3:7"/>
    </vehicle>
    <vehicle id="335" depart="335.00">
        <route edges="8:2 2:0 0:1 1:5 5:6"/>
    </vehicle>
    <vehicle id="338" depart="338.00">
        <route edges="0:1 1:3"/>
    </vehicle>
    <vehicle id="342" depart="342.00">
        <route edges="9:0 0:2 2:8"/>
    </vehicle>
    <vehicle id="343" depart="343.00">
        <route edges="7:3 3:1 1:0 0:2"/>
    </vehicle>
    <vehicle id="347" depart="347.00">
        <route edges="3:1 1:5"/>
    </vehicle>
    <vehicle id="348" depart="348.00">
        <route edges="7:3 3:1 1:0 0:2 2:8"/>
    </vehicle>
    <vehicle id="349" depart="349.00">
        <route edges="6:5 5:1 1:3 3:7"/>
    </vehicle>
    <vehicle id="351" depart="351.00">
        <route edges="6:5 5:1 1:0"/>
    </vehicle>
    <vehicle id="355" depart="355.00">
        <route edges="8:2 2:0"/>
    </vehicle>
    <vehicle id="357" depart="357.00">
        <route edges="3:1"/>
    </vehicle>
    <vehicle id="359" depart="359.00">
        <route edges="7:3 3:1 1:5"/>
    </vehicle>
    <vehicle id="360" depart="360.00">
        <route edges="1:0 0:2 2:8"/>
    </vehicle>
    <vehicle id="361" depart="361.00">
        <route edges="1:3 3:7"/>
    </vehicle>
    <vehicle id="362" depart="362.00">
        <route edges="1:3 3:7"/>
    </vehicle>
    <vehicle id="363" depart="363.00">
        <route edges="3:1 1:0 0:2 2:8"/>
    </vehicle>
    <vehicle id="364" depart="364.00">
        <route edges="8:2 2:0 0:1 1:3 3:7"/>
    </vehicle>
    <vehicle id="370" depart="370.00">
        <route edges="1:3 3:7"/>
    </vehicle>
    <vehicle id="372" depart="372.00">
        <route edges="0:1 1:3 3:7"/>
    </vehicle>
    <vehicle id="374" depart="374.00">
        <route edges="8:2 2:0"/>
    </vehicle>
    <vehicle id="378" depart="378.00">
        <route edges="3:1 1:0 0:2 2:8"/>
    </vehicle>
    <vehicle id="379" depart="379.00">
        <route edges="7:3 3:1 1:5 5:6"/>
    </vehicle>
    <vehicle id="382" depart="382.00">
        <route edges="8:2 2:0 0:1 1:3 3:7"/>
    </vehicle>
    <vehicle id="387" depart="387.00">
        <route edges="3:1 1:0 0:2 2:8"/>
    </vehicle>
    <vehicle id="388" depart="388.00">
        <route edges="5:1"/>
    </vehicle>
    <vehicle id="391" depart="391.00">
        <route edges="8:2 2:0 0:1 1:3 3:7"/>
    </vehicle>
    <vehicle id="392" depart="392.00">
        <route edges="2:0 0:9"/>
    </vehicle>
    <vehicle id="393" depart="393.00">
        <route edges="0:1 1:5 5:6"/>
    </vehicle>
    <vehicle id="394" depart="394.00">
        <route edges="6:5 5:1 1:0 0:2 2:8"/>
    </vehicle>
    <vehicle id="398" depart="398.00">
        <route edges="2:0 0:1 1:3 3:7"/>
    </vehicle>
    <vehicle id="401" depart="401.00">
        <route edges="2:0 0:1 1:3 3:7"/>
    </vehicle>
    <vehicle id="403" depart="403.00">
        <route edges="0:1 1:3"/>
    </vehicle>
    <vehicle id="404" depart="404.00">
        <route edges="10:9 9:0 0:1 1:3 3:7"/>
    </vehicle>
    <vehicle id="406" depart="406.00">
        <route edges="8:2 2:0 0:1 1:3 3:7"/>
    </vehicle>
    <vehicle id="407" depart="407.00">
        <route edges="10:9 9:0 0:2 2:8"/>
    </vehicle>
    <vehicle id="408" depart="408.00">
        <route edges="1:5"/>
    </vehicle>
    <vehicle id="414" depart="414.00">
        <route edges="1:3 3:7"/>
    </vehicle>
    <vehicle id="423" depart="423.00">
        <route edges="3:1 1:5"/>
    </vehicle>
    <vehicle id="426" depart="426.00">
        <route edges="8:2 2:0 0:1"/>
    </vehicle>
    <vehicle id="428" depart="428.00">
        <route edges="8:2 2:0 0:1 1:3 3:7"/>
    </vehicle>
    <vehicle id="429" depart="429.00">
        <route edges="6:5 5:1 1:0"/>
    </vehicle>
    <vehicle id="430" depart="430.00">
        <route edges="6:5 5:1 1:3 3:7"/>
    </vehicle>
    <vehicle id="435" depart="435.00">
        <route edges="8:2 2:0"/>
    </vehicle>
    <vehicle id="437" depart="437.00">
        <route edges="8:2 2:0 0:1 1:5"/>
    </vehicle>
    <vehicle id="438" depart="438.00">
        <route edges="5:1 1:3"/>
    </vehicle>
    <vehicle id="443" depart="443.00">
        <route edges="7:3 3:1 1:0 0:2 2:8"/>
    </vehicle>
    <vehicle id="444" depart="444.00">
        <route edges="8:2 2:0 0:9 9:10"/>
    </vehicle>
    <vehicle id="445" depart="445.00">
        <route edges="7:3 3:1 1:5"/>
    </vehicle>
    <vehicle id="449" depart="449.00">
        <route edges="1:3 3:7"/>
    </vehicle>
    <vehicle id="450" depart="450.00">
        <route edges="2:0 0:9"/>
    </vehicle>
    <vehicle id="452" depart="452.00">
        <route edges="2:0 0:1 1:3 3:7"/>
    </vehicle>
    <vehicle id="456" depart="456.00">
        <route edges="5:1 1:3 3:7"/>
    </vehicle>
    <vehicle id="458" depart="458.00">
        <route edges="2:0 0:9 9:10"/>
    </vehicle>
    <vehicle id="460" depart="460.00">
        <route edges="8:2 2:0 0:1 1:5 5:6"/>
    </vehicle>
    <vehicle id="462" depart="462.00">
        <route edges="3:1 1:0 0:2 2:8"/>
    </vehicle>
    <vehicle id="463" depart="463.00">
        <route edges="2:0 0:1 1:3 3:7"/>
    </vehicle>
    <vehicle id="470" depart="470.00">
        <route edges="10:9 9:0 0:1 1:3 3:7"/>
    </vehicle>
    <vehicle id="474" depart="474.00">
        <route edges="9:0 0:2 2:8"/>
    </vehicle>
    <vehicle id="476" depart="476.00">
        <route edges="3:1 1:0 0:9"/>
    </vehicle>
    <vehicle id="478" depart="478.00">
        <route edges="3:1 1:0 0:9 9:10"/>
    </vehicle>
    <vehicle id="483" depart="483.00">
        <route edges="5:1 1:0 0:9"/>
    </vehicle>
    <vehicle id="484" depart="484.00">
        <route edges="10:9 9:0 0:2 2:8"/>
    </vehicle>
    <vehicle id="487" depart="487.00">
        <route edges="6:5 5:1 1:0 0:9 9:10"/>
    </vehicle>
    <vehicle id="488" depart="488.00">
        <route edges="3:1 1:0 0:2 2:8"/>
    </vehicle>
    <vehicle id="489" depart="489.00">
        <route edges="3:1 1:0 0:2 2:8"/>
    </vehicle>
    <vehicle id="494" depart="494.00">
        <route edges="3:1 1:0 0:2 2:8"/>
    </vehicle>
    <vehicle id="495" depart="495.00">
        <route edges="5:1"/>
    </vehicle>
    <vehicle id="498" depart="498.00">
        <route edges="10:9 9:0 0:1 1:3"/>
    </vehicle>
    <vehicle id="499" depart="499.00">
        <route edges="0:1 1:5 5:6"/>
    </vehicle>
    <vehicle id="502" depart="502.00">
        <route edges="10:9 9:0 0:2 2:8"/>
    </vehicle>
    <vehicle id="504" depart="504.00">
        <route edges="7:3 3:1 1:0 0:2 2:8"/>
    </vehicle>
    <vehicle id="505" depart="505.00">
        <route edges="7:3 3:1 1:0"/>
    </vehicle>
    <vehicle id="507" depart="507.00">
        <route edges="7:3 3:1 1:0"/>
    </vehicle>
    <vehicle id="509" depart="509.00">
        <route edges="7:3 3:1 1:0 0:2 2:8"/>
    </vehicle>
    <vehicle id="511" depart="511.00">
        <route edges="6:5 5:1 1:3 3:7"/>
    </vehicle>
    <vehicle id="514" depart="514.00">
        <route edges="8:2 2:0 0:1 1:5 5:6"/>
    </vehicle>
    <vehicle id="515" depart="515.00">
        <route edges="6:5 5:1 1:0 0:2 2:8"/>
    </vehicle>
    <vehicle id="518" depart="518.00">
        <route edges="6:5 5:1 1:0 0:2 2:8"/>
    </vehicle>
    <vehicle id="519" depart="519.00">
        <route edges="8:2 2:0 0:1"/>
    </vehicle>
    <vehicle id="521" depart="521.00">
        <route edges="1:3 3:7"/>
    </vehicle>
    <vehicle id="522" depart="522.00">
        <route edges="5:1"/>
    </vehicle>
    <vehicle id="523" depart="523.00">
        <route edges="0:2 2:8"/>
    </vehicle>
    <vehicle id="524" depart="524.00">
        <route edges="7:3 3:1"/>
    </vehicle>
    <vehicle id="529" depart="529.00">
        <route edges="10:9 9:0 0:1 1:5 5:6"/>
    </vehicle>
    <vehicle id="532" depart="532.00">
        <route edges="9:0 0:1 1:3 3:7"/>
    </vehicle>
    <vehicle id="533" depart="533.00">
        <route edges="8:2 2:0 0:1 1:5 5:6"/>
    </vehicle>
    <vehicle id="536" depart="536.00">
        <route edges="6:5 5:1 1:3 3:7"/>
    </vehicle>
    <vehicle id="540" depart="540.00">
        <route edges="9:0 0:1 1:3"/>
    </vehicle>
    <vehicle id="541" depart="541.00">
        <route edges="8:2 2:0 0:9"/>
    </vehicle>
    <vehicle id="542" depart="542.00">
        <route edges="2:0 0:9"/>
    </vehicle>
    <vehicle id="550" depart="550.00">
        <route edges="7:3 3:1 1:5"/>
    </vehicle>
    <vehicle id="551" depart="551.00">
        <route edges="7:3 3:1 1:0 0:2 2:8"/>
    </vehicle>
    <vehicle id="556" depart="556.00">
        <route edges="8:2 2:0 0:1 1:5 5:6"/>
    </vehicle>
    <vehicle id="557" depart="557.00">
        <route edges="8:2 2:0 0:1 1:3"/>
    </vehicle>
    <vehicle id="561" depart="561.00">
        <route edges="10:9 9:0 0:1 1:3 3:7"/>
    </vehicle>
    <vehicle id="564" depart="564.00">
        <route edges="5:1 1:0 0:2 2:8"/>
    </vehicle>
    <vehicle id="565" depart="565.00">
        <route edges="7:3 3:1 1:0 0:2 2:8"/>
    </vehicle>
    <vehicle id="566" depart="566.00">
        <route edges="5:1 1:0 0:2 2:8"/>
    </vehicle>
    <vehicle id="574" depart="574.00">
        <route edges="1:3 3:7"/>
    </vehicle>
    <vehicle id="575" depart="575.00">
        <route edges="9:0 0:1"/>
    </vehicle>
    <vehicle id="580" depart="580.00">
        <route edges="8:2 2:0 0:9 9:10"/>
    </vehicle>
    <vehicle id="585" depart="585.00">
        <route edges="5:1 1:3"/>
    </vehicle>
    <vehicle id="586" depart="586.00">
        <route edges="9:0 0:2 2:8"/>
    </vehicle>
    <vehicle id="588" depart="588.00">
        <route edges="0:2 2:8"/>
    </vehicle>
    <vehicle id="589" depart="589.00">
        <route edges="6:5 5:1 1:0 0:9"/>
    </vehicle>
    <vehicle id="590" depart="590.00">
        <route edges="0:2"/>
    </vehicle>
    <vehicle id="592" depart="592.00">
        <route edges="3:1"/>
    </vehicle>
    <vehicle id="595" depart="595.00">
        <route edges="3:1 1:0"/>
    </vehicle>
    <vehicle id="596" depart="596.00">
        <route edges="7:3 3:1 1:0 0:9"/>
    </vehicle>
    <vehicle id="597" depart="597.00">
        <route edges="3:1 1:0 0:9 9:10"/>
    </vehicle>
    <vehicle id="598" depart="598.00">
        <route edges="0:2 2:8"/>
    </vehicle>
    <vehicle id="599" depart="599.00">
        <route edges="8:2 2:0 0:9 9:10"/>
    </vehicle>
    <vehicle id="601" depart="601.00">
        <route edges="8:2 2:0 0:1 1:3 3:7"/>
    </vehicle>
    <vehicle id="602" depart="602.00">
        <route edges="7:3 3:1 1:0 0:2 2:8"/>
    </vehicle>
    <vehicle id="603" depart="603.00">
        <route edges="1:0 0:2 2:8"/>
    </vehicle>
    <vehicle id="607" depart="607.00">
        <route edges="8:2 2:0 0:1 1:5 5:6"/>
    </vehicle>
    <vehicle id="609" depart="609.00">
        <route edges="6:5 5:1"/>
    </vehicle>
    <vehicle id="610" depart="610.00">
        <route edges="6:5 5:1 1:0 0:2 2:8"/>
    </vehicle>
    <vehicle id="613" depart="613.00">
        <route edges="9:0 0:2 2:8"/>
    </vehicle>
    <vehicle id="618" depart="618.00">
        <route edges="0:2 2:8"/>
    </vehicle>
    <vehicle id="619" depart="619.00">
        <route edges="7:3 3:1"/>
    </vehicle>
    <vehicle id="623" depart="623.00">
        <route edges="6:5 5:1 1:3 3:7"/>
    </vehicle>
    <vehicle id="624" depart="624.00">
        <route edges="10:9 9:0 0:1 1:3"/>
    </vehicle>
    <vehicle id="625" depart="625.00">
        <route edges="7:3 3:1 1:0 0:2 2:8"/>
    </vehicle>
    <vehicle id="627" depart="627.00">
        <route edges="10:9 9:0 0:1 1:3"/>
    </vehicle>
    <vehicle id="633" depart="633.00">
        <route edges="2:0 0:1 1:3"/>
    </vehicle>
    <vehicle id="639" depart="639.00">
        <route edges="6:5 5:1 1:0 0:2 2:8"/>
    </vehicle>
    <vehicle id="643" depart="643.00">
        <route edges="10:9 9:0 0:1 1:3"/>
    </vehicle>
    <vehicle id="644" depart="644.00">
        <route edges="7:3 3:1 1:0"/>
    </vehicle>
    <vehicle id="646" depart="646.00">
        <route edges="7:3 3:1 1:0 0:9 9:10"/>
    </vehicle>
    <vehicle id="647" depart="647.00">
        <route edges="9:0 0:1 1:3 3:7"/>
    </vehicle>
    <vehicle id="648" depart="648.00">
        <route edges="1:3"/>
    </vehicle>
    <vehicle id="650" depart="650.00">
        <route edges="7:3 3:1 1:0 0:2"/>
    </vehicle>
    <vehicle id="652" depart="652.00">
        <route edges="0:1 1:3"/>
    </vehicle>
    <vehicle id="653" depart="653.00">
        <route edges="5:1 1:3"/>
    </vehicle>
    <vehicle id="654" depart="654.00">
        <route edges="3:1 1:0 0:2 2:8"/>
    </vehicle>
    <vehicle id="656" depart="656.00">
        <route edges="9:0 0:2"/>
    </vehicle>
    <vehicle id="659" depart="659.00">
        <route edges="7:3 3:1 1:5 5:6"/>
    </vehicle>
    <vehicle id="663" depart="663.00">
        <route edges="6:5 5:1 1:3 3:7"/>
    </vehicle>
    <vehicle id="665" depart="665.00">
        <route edges="8:2 2:0"/>
    </vehicle>
    <vehicle id="666" depart="666.00">
        <route edges="3:1 1:5 5:6"/>
    </vehicle>
    <vehicle id="667" depart="667.00">
        <route edges="2:0 0:1"/>
    </vehicle>
    <vehicle id="669" depart="669.00">
        <route edges="0:1 1:3"/>
    </vehicle>
    <vehicle id="670" depart="670.00">
        <route edges="7:3 3:1 1:0"/>
    </vehicle>
    <vehicle id="676" depart="676.00">
        <route edges="7:3 3:1 1:5 5:6"/>
    </vehicle>
    <vehicle id="677" depart="677.00">
        <route edges="0:2"/>
    </vehicle>
    <vehicle id="679" depart="679.00">
        <route edges="0:1 1:3 3:7"/>
    </vehicle>
    <vehicle id="680" depart="680.00">
        <route edges="9:0 0:1 1:3 3:7"/>
    </vehicle>
    <vehicle id="681" depart="681.00">
        <route edges="2:0"/>
    </vehicle>
    <vehicle id="682" depart="682.00">
        <route edges="8:2 2:0 0:9 9:10"/>
    </vehicle>
    <vehicle id="683" depart="683.00">
        <route edges="0:1"/>
    </vehicle>
    <vehicle id="684" depart="684.00">
        <route edges="5:1 1:0 0:9 9:10"/>
    </vehicle>
    <vehicle id="687" depart="687.00">
        <route edges="7:3 3:1 1:0 0:9 9:10"/>
    </vehicle>
    <vehicle id="689" depart="689.00">
        <route edges="7:3 3:1 1:0 0:9"/>
    </vehicle>
    <vehicle id="691" depart="691.00">
        <route edges="0:9 9:10"/>
    </vehicle>
    <vehicle id="692" depart="692.00">
        <route edges="6:5 5:1 1:0 0:2 2:8"/>
    </vehicle>
    <vehicle id="694" depart="694.00">
        <route edges="1:3 3:7"/>
    </vehicle>
    <vehicle id="695" depart="695.00">
        <route edges="8:2 2:0 0:1 1:5 5:6"/>
    </vehicle>
    <vehicle id="699" depart="699.00">
        <route edges="9:0 0:2 2:8"/>
    </vehicle>
    <vehicle id="700" depart="700.00">
        <route edges="3:1 1:0"/>
    </vehicle>
    <vehicle id="705" depart="705.00">
        <route edges="0:9 9:10"/>
    </vehicle>