<?xml version="1.0" encoding="UTF-8"?>

<!-- generated on Thu Feb 13 14:16:35 2014 by SUMO duarouter Version 0.18.0
<?xml version="1.0" encoding="UTF-8"?>

<configuration xmlns:xsi="http://www.w3.org/2001/XMLSchema-instance" xsi:noNamespaceSchemaLocation="http://sumo.sf.net/xsd/duarouterConfiguration.xsd">

    <input>
        <net-file value="twinT.net.xml"/>
        <trip-files value="experimentos/twinT.p1.0.7.trips.xml"/>
    </input>

    <output>
        <output-file value="experimentos/twinT.p1.0.7.rou.xml"/>
    </output>

    <processing>
        <ignore-errors value="true"/>
    </processing>

    <random_number>
        <random value="true"/>
    </random_number>

</configuration>
-->

<routes xmlns:xsi="http://www.w3.org/2001/XMLSchema-instance" xsi:noNamespaceSchemaLocation="http://sumo.sf.net/xsd/routes_file.xsd">
    <vehicle id="0" depart="0.00">
        <route edges="7:3 3:1 1:0 0:2 2:8"/>
    </vehicle>
    <vehicle id="3" depart="3.00">
        <route edges="8:2 2:0 0:1 1:3 3:7"/>
    </vehicle>
    <vehicle id="5" depart="5.00">
        <route edges="7:3 3:1"/>
    </vehicle>
    <vehicle id="7" depart="7.00">
        <route edges="7:3 3:1 1:0 0:2"/>
    </vehicle>
    <vehicle id="10" depart="10.00">
        <route edges="7:3 3:1"/>
    </vehicle>
    <vehicle id="14" depart="14.00">
        <route edges="6:5 5:1 1:0 0:2"/>
    </vehicle>
    <vehicle id="21" depart="21.00">
        <route edges="2:0 0:1 1:3 3:7"/>
    </vehicle>
    <vehicle id="22" depart="22.00">
        <route edges="2:0 0:1 1:5 5:6"/>
    </vehicle>
    <vehicle id="23" depart="23.00">
        <route edges="8:2 2:0"/>
    </vehicle>
    <vehicle id="27" depart="27.00">
        <route edges="7:3 3:1 1:0 0:9 9:10"/>
    </vehicle>
    <vehicle id="29" depart="29.00">
        <route edges="8:2 2:0 0:1 1:3 3:7"/>
    </vehicle>
    <vehicle id="30" depart="30.00">
        <route edges="3:1 1:0 0:9 9:10"/>
    </vehicle>
    <vehicle id="31" depart="31.00">
        <route edges="2:0 0:9 9:10"/>
    </vehicle>
    <vehicle id="32" depart="32.00">
        <route edges="3:1 1:0 0:2 2:8"/>
    </vehicle>
    <vehicle id="33" depart="33.00">
        <route edges="8:2 2:0"/>
    </vehicle>
    <vehicle id="36" depart="36.00">
        <route edges="7:3 3:1 1:0 0:2 2:8"/>
    </vehicle>
    <vehicle id="39" depart="39.00">
        <route edges="8:2 2:0 0:1 1:3 3:7"/>
    </vehicle>
    <vehicle id="43" depart="43.00">
        <route edges="8:2 2:0 0:9 9:10"/>
    </vehicle>
    <vehicle id="45" depart="45.00">
        <route edges="1:3 3:7"/>
    </vehicle>
    <vehicle id="49" depart="49.00">
        <route edges="7:3 3:1 1:0 0:9"/>
    </vehicle>
    <vehicle id="53" depart="53.00">
        <route edges="7:3 3:1 1:0 0:2 2:8"/>
    </vehicle>
    <vehicle id="55" depart="55.00">
        <route edges="6:5 5:1 1:0 0:2 2:8"/>
    </vehicle>
    <vehicle id="56" depart="56.00">
        <route edges="3:1 1:5 5:6"/>
    </vehicle>
    <vehicle id="59" depart="59.00">
        <route edges="2:0 0:1"/>
    </vehicle>
    <vehicle id="60" depart="60.00">
        <route edges="7:3 3:1 1:0 0:2 2:8"/>
    </vehicle>
    <vehicle id="61" depart="61.00">
        <route edges="7:3 3:1 1:0 0:2 2:8"/>
    </vehicle>
    <vehicle id="64" depart="64.00">
        <route edges="1:5"/>
    </vehicle>
    <vehicle id="67" depart="67.00">
        <route edges="1:3"/>
    </vehicle>
    <vehicle id="68" depart="68.00">
        <route edges="7:3 3:1 1:0 0:9 9:10"/>
    </vehicle>
    <vehicle id="69" depart="69.00">
        <route edges="1:3"/>
    </vehicle>
    <vehicle id="70" depart="70.00">
        <route edges="8:2 2:0 0:1 1:5 5:6"/>
    </vehicle>
    <vehicle id="71" depart="71.00">
        <route edges="10:9 9:0 0:1 1:3"/>
    </vehicle>
    <vehicle id="72" depart="72.00">
        <route edges="10:9 9:0 0:1 1:3 3:7"/>
    </vehicle>
    <vehicle id="73" depart="73.00">
        <route edges="7:3 3:1 1:0 0:2"/>
    </vehicle>
    <vehicle id="76" depart="76.00">
        <route edges="1:3"/>
    </vehicle>
    <vehicle id="77" depart="77.00">
        <route edges="3:1 1:0 0:2 2:8"/>
    </vehicle>
    <vehicle id="78" depart="78.00">
        <route edges="0:2 2:8"/>
    </vehicle>
    <vehicle id="82" depart="82.00">
        <route edges="3:1 1:0 0:9 9:10"/>
    </vehicle>
    <vehicle id="84" depart="84.00">
        <route edges="8:2 2:0 0:1 1:3"/>
    </vehicle>
    <vehicle id="85" depart="85.00">
        <route edges="5:1 1:3 3:7"/>
    </vehicle>
    <vehicle id="90" depart="90.00">
        <route edges="6:5 5:1"/>
    </vehicle>
    <vehicle id="91" depart="91.00">
        <route edges="7:3 3:1"/>
    </vehicle>
    <vehicle id="92" depart="92.00">
        <route edges="3:1 1:0 0:2"/>
    </vehicle>
    <vehicle id="93" depart="93.00">
        <route edges="8:2 2:0 0:1 1:3"/>
    </vehicle>
    <vehicle id="98" depart="98.00">
        <route edges="8:2 2:0 0:1 1:5 5:6"/>
    </vehicle>
    <vehicle id="100" depart="100.00">
        <route edges="2:0"/>
    </vehicle>
    <vehicle id="103" depart="103.00">
        <route edges="0:1 1:3 3:7"/>
    </vehicle>
    <vehicle id="104" depart="104.00">
        <route edges="3:1 1:5 5:6"/>
    </vehicle>
    <vehicle id="105" depart="105.00">
        <route edges="3:1 1:0 0:9"/>
    </vehicle>
    <vehicle id="106" depart="106.00">
        <route edges="5:1 1:0"/>
    </vehicle>
    <vehicle id="107" depart="107.00">
        <route edges="8:2 2:0 0:1 1:3"/>
    </vehicle>
    <vehicle id="109" depart="109.00">
        <route edges="0:2"/>
    </vehicle>
    <vehicle id="111" depart="111.00">
        <route edges="1:3 3:7"/>
    </vehicle>
    <vehicle id="113" depart="113.00">
        <route edges="7:3 3:1 1:0 0:2 2:8"/>
    </vehicle>
    <vehicle id="114" depart="114.00">
        <route edges="8:2 2:0 0:9 9:10"/>
    </vehicle>
    <vehicle id="117" depart="117.00">
        <route edges="3:1 1:0 0:2 2:8"/>
    </vehicle>
    <vehicle id="119" depart="119.00">
        <route edges="10:9 9:0 0:1 1:3 3:7"/>
    </vehicle>
    <vehicle id="121" depart="121.00">
        <route edges="8:2 2:0 0:1 1:3"/>
    </vehicle>
    <vehicle id="122" depart="122.00">
        <route edges="6:5 5:1 1:3 3:7"/>
    </vehicle>
    <vehicle id="123" depart="123.00">
        <route edges="9:0 0:2"/>
    </vehicle>
    <vehicle id="124" depart="124.00">
        <route edges="8:2 2:0 0:1"/>
    </vehicle>
    <vehicle id="127" depart="127.00">
        <route edges="8:2 2:0 0:1 1:5 5:6"/>
    </vehicle>
    <vehicle id="130" depart="130.00">
        <route edges="0:1 1:5"/>
    </vehicle>
    <vehicle id="131" depart="131.00">
        <route edges="2:0 0:1 1:3 3:7"/>
    </vehicle>
    <vehicle id="135" depart="135.00">
        <route edges="8:2 2:0 0:1 1:3"/>
    </vehicle>
    <vehicle id="138" depart="138.00">
        <route edges="1:3 3:7"/>
    </vehicle>
    <vehicle id="139" depart="139.00">
        <route edges="3:1 1:5 5:6"/>
    </vehicle>
    <vehicle id="141" depart="141.00">
        <route edges="9:0 0:1 1:5 5:6"/>
    </vehicle>
    <vehicle id="142" depart="142.00">
        <route edges="7:3 3:1 1:0 0:9"/>
    </vehicle>
    <vehicle id="145" depart="145.00">
        <route edges="3:1 1:0 0:9 9:10"/>
    </vehicle>
    <vehicle id="146" depart="146.00">
        <route edges="8:2 2:0 0:1 1:3 3:7"/>
    </vehicle>
    <vehicle id="151" depart="151.00">
        <route edges="0:1 1:3 3:7"/>
    </vehicle>
    <vehicle id="152" depart="152.00">
        <route edges="6:5 5:1 1:0 0:2 2:8"/>
    </vehicle>
    <vehicle id="153" depart="153.00">
        <route edges="9:0 0:1 1:5"/>
    </vehicle>
    <vehicle id="154" depart="154.00">
        <route edges="8:2 2:0"/>
    </vehicle>
    <vehicle id="155" depart="155.00">
        <route edges="0:2 2:8"/>
    </vehicle>
    <vehicle id="156" depart="156.00">
        <route edges="8:2 2:0"/>
    </vehicle>
    <vehicle id="157" depart="157.00">
        <route edges="8:2 2:0 0:1 1:3 3:7"/>
    </vehicle>
    <vehicle id="158" depart="158.00">
        <route edges="2:0 0:1"/>
    </vehicle>
    <vehicle id="162" depart="162.00">
        <route edges="6:5 5:1 1:3"/>
    </vehicle>
    <vehicle id="163" depart="163.00">
        <route edges="8:2 2:0"/>
    </vehicle>
    <vehicle id="164" depart="164.00">
        <route edges="3:1 1:0 0:9 9:10"/>
    </vehicle>
    <vehicle id="166" depart="166.00">
        <route edges="2:0 0:1 1:3"/>
    </vehicle>
    <vehicle id="167" depart="167.00">
        <route edges="8:2 2:0 0:9 9:10"/>
    </vehicle>
    <vehicle id="172" depart="172.00">
        <route edges="7:3 3:1 1:5"/>
    </vehicle>
    <vehicle id="174" depart="174.00">
        <route edges="0:9 9:10"/>
    </vehicle>
    <vehicle id="175" depart="175.00">
        <route edges="8:2 2:0 0:9 9:10"/>
    </vehicle>
    <vehicle id="178" depart="178.00">
        <route edges="0:2 2:8"/>
    </vehicle>
    <vehicle id="180" depart="180.00">
        <route edges="8:2 2:0 0:1 1:3 3:7"/>
    </vehicle>
    <vehicle id="181" depart="181.00">
        <route edges="10:9 9:0 0:1 1:3 3:7"/>
    </vehicle>
    <vehicle id="182" depart="182.00">
        <route edges="7:3 3:1 1:0"/>
    </vehicle>
    <vehicle id="184" depart="184.00">
        <route edges="8:2 2:0 0:1 1:5 5:6"/>
    </vehicle>
    <vehicle id="185" depart="185.00">
        <route edges="1:0 0:2 2:8"/>
    </vehicle>
    <vehicle id="187" depart="187.00">
        <route edges="2:0"/>
    </vehicle>
    <vehicle id="190" depart="190.00">
        <route edges="3:1 1:0 0:9 9:10"/>
    </vehicle>
    <vehicle id="193" depart="193.00">
        <route edges="7:3 3:1 1:0 0:2"/>
    </vehicle>
    <vehicle id="194" depart="194.00">
        <route edges="8:2 2:0 0:1 1:3"/>
    </vehicle>
    <vehicle id="197" depart="197.00">
        <route edges="0:2 2:8"/>
    </vehicle>
    <vehicle id="199" depart="199.00">
        <route edges="10:9 9:0 0:2 2:8"/>
    </vehicle>
    <vehicle id="201" depart="201.00">
        <route edges="8:2 2:0 0:1 1:3 3:7"/>
    </vehicle>
    <vehicle id="203" depart="203.00">
        <route edges="7:3 3:1 1:0 0:2 2:8"/>
    </vehicle>
    <vehicle id="207" depart="207.00">
        <route edges="2:0 0:1 1:3 3:7"/>
    </vehicle>
    <vehicle id="209" depart="209.00">
        <route edges="7:3 3:1 1:0 0:2 2:8"/>
    </vehicle>
    <vehicle id="210" depart="210.00">
        <route edges="8:2 2:0"/>
    </vehicle>
    <vehicle id="212" depart="212.00">
        <route edges="7:3 3:1 1:5 5:6"/>
    </vehicle>
    <vehicle id="213" depart="213.00">
        <route edges="0:1 1:5"/>
    </vehicle>
    <vehicle id="215" depart="215.00">
        <route edges="3:1 1:0 0:2 2:8"/>
    </vehicle>
    <vehicle id="216" depart="216.00">
        <route edges="8:2 2:0 0:1 1:3 3:7"/>
    </vehicle>
    <vehicle id="219" depart="219.00">
        <route edges="2:0"/>
    </vehicle>
    <vehicle id="220" depart="220.00">
        <route edges="7:3 3:1 1:0 0:2 2:8"/>
    </vehicle>
    <vehicle id="222" depart="222.00">
        <route edges="9:0 0:2 2:8"/>
    </vehicle>
    <vehicle id="224" depart="224.00">
        <route edges="10:9 9:0 0:1 1:3 3:7"/>
    </vehicle>
    <vehicle id="225" depart="225.00">
        <route edges="7:3 3:1 1:0 0:2 2:8"/>
    </vehicle>
    <vehicle id="228" depart="228.00">
        <route edges="2:0 0:1 1:3 3:7"/>
    </vehicle>
    <vehicle id="229" depart="229.00">
        <route edges="5:1 1:3 3:7"/>
    </vehicle>
    <vehicle id="231" depart="231.00">
        <route edges="7:3 3:1 1:5 5:6"/>
    </vehicle>
    <vehicle id="232" depart="232.00">
        <route edges="5:1 1:0 0:2 2:8"/>
    </vehicle>
    <vehicle id="236" depart="236.00">
        <route edges="8:2 2:0 0:1 1:3 3:7"/>
    </vehicle>
    <vehicle id="242" depart="242.00">
        <route edges="0:9"/>
    </vehicle>
    <vehicle id="243" depart="243.00">
        <route edges="8:2 2:0 0:9"/>
    </vehicle>
    <vehicle id="244" depart="244.00">
        <route edges="6:5 5:1 1:0 0:2 2:8"/>
    </vehicle>
    <vehicle id="245" depart="245.00">
        <route edges="3:1 1:0 0:2"/>
    </vehicle>
    <vehicle id="246" depart="246.00">
        <route edges="1:3 3:7"/>
    </vehicle>
    <vehicle id="248" depart="248.00">
        <route edges="7:3 3:1 1:5"/>
    </vehicle>
    <vehicle id="249" depart="249.00">
        <route edges="2:0 0:1 1:3 3:7"/>
    </vehicle>
    <vehicle id="253" depart="253.00">
        <route edges="1:0"/>
    </vehicle>
    <vehicle id="259" depart="259.00">
        <route edges="0:2 2:8"/>
    </vehicle>
    <vehicle id="260" depart="260.00">
        <route edges="1:0 0:2 2:8"/>
    </vehicle>
    <vehicle id="262" depart="262.00">
        <route edges="8:2 2:0 0:9"/>
    </vehicle>
    <vehicle id="266" depart="266.00">
        <route edges="0:1"/>
    </vehicle>
    <vehicle id="268" depart="268.00">
        <route edges="7:3 3:1 1:0 0:2 2:8"/>
    </vehicle>
    <vehicle id="269" depart="269.00">
        <route edges="6:5 5:1 1:0 0:2 2:8"/>
    </vehicle>
    <vehicle id="270" depart="270.00">
        <route edges="3:1 1:5 5:6"/>
    </vehicle>
    <vehicle id="272" depart="272.00">
        <route edges="1:0 0:2 2:8"/>
    </vehicle>
    <vehicle id="273" depart="273.00">
        <route edges="10:9 9:0 0:1"/>
    </vehicle>
    <vehicle id="274" depart="274.00">
        <route edges="10:9 9:0 0:1 1:5 5:6"/>
    </vehicle>
    <vehicle id="275" depart="275.00">
        <route edges="7:3 3:1 1:0 0:2"/>
    </vehicle>
    <vehicle id="277" depart="277.00">
        <route edges="6:5 5:1 1:0 0:2"/>
    </vehicle>
    <vehicle id="279" depart="279.00">
        <route edges="10:9 9:0 0:2"/>
    </vehicle>
    <vehicle id="280" depart="280.00">
        <route edges="0:1 1:3 3:7"/>
    </vehicle>
    <vehicle id="281" depart="281.00">
        <route edges="3:1 1:0 0:2"/>
    </vehicle>
    <vehicle id="282" depart="282.00">
        <route edges="8:2 2:0 0:1 1:3 3:7"/>
    </vehicle>
    <vehicle id="283" depart="283.00">
        <route edges="8:2 2:0 0:1 1:3 3:7"/>
    </vehicle>
    <vehicle id="289" depart="289.00">
        <route edges="1:3 3:7"/>
    </vehicle>
    <vehicle id="291" depart="291.00">
        <route edges="7:3 3:1 1:0"/>
    </vehicle>
    <vehicle id="296" depart="296.00">
        <route edges="0:1 1:3 3:7"/>
    </vehicle>
    <vehicle id="299" depart="299.00">
        <route edges="5:1 1:3 3:7"/>
    </vehicle>
    <vehicle id="300" depart="300.00">
        <route edges="8:2 2:0 0:1 1:3 3:7"/>
    </vehicle>
    <vehicle id="301" depart="301.00">
        <route edges="7:3 3:1 1:0 0:9"/>
    </vehicle>
    <vehicle id="303" depart="303.00">
        <route edges="8:2 2:0"/>
    </vehicle>
    <vehicle id="304" depart="304.00">
        <route edges="0:1 1:3"/>
    </vehicle>
    <vehicle id="306" depart="306.00">
        <route edges="8:2 2:0 0:9 9:10"/>
    </vehicle>
    <vehicle id="308" depart="308.00">
        <route edges="2:0 0:1 1:3 3:7"/>
    </vehicle>
    <vehicle id="310" depart="310.00">
        <route edges="0:2 2:8"/>
    </vehicle>
    <vehicle id="311" depart="311.00">
        <route edges="7:3 3:1"/>
    </vehicle>
    <vehicle id="312" depart="312.00">
        <route edges="6:5 5:1 1:0 0:2 2:8"/>
    </vehicle>
    <vehicle id="314" depart="314.00">
        <route edges="3:1 1:0 0:9"/>
    </vehicle>
    <vehicle id="316" depart="316.00">
        <route edges="7:3 3:1 1:0"/>
    </vehicle>
    <vehicle id="318" depart="318.00">
        <route edges="8:2 2:0 0:1 1:3"/>
    </vehicle>
    <vehicle id="319" depart="319.00">
        <route edges="8:2 2:0 0:1 1:3"/>
    </vehicle>
    <vehicle id="322" depart="322.00">
        <route edges="2:0 0:1 1:5 5:6"/>
    </vehicle>
    <vehicle id="323" depart="323.00">
        <route edges="3:1 1:0 0:2 2:8"/>
    </vehicle>
    <vehicle id="327" depart="327.00">
        <route edges="2:0 0:9"/>
    </vehicle>
    <vehicle id="328" depart="328.00">
        <route edges="8:2 2:0 0:1 1:3 3:7"/>
    </vehicle>
    <vehicle id="329" depart="329.00">
        <route edges="10:9 9:0 0:1 1:3 3:7"/>
    </vehicle>
    <vehicle id="330" depart="330.00">
        <route edges="8:2 2:0"/>
    </vehicle>
    <vehicle id="332" depart="332.00">
        <route edges="8:2 2:0 0:1 1:3 3:7"/>
    </vehicle>
    <vehicle id="335" depart="335.00">
        <route edges="7:3 3:1 1:0 0:9 9:10"/>
    </vehicle>
    <vehicle id="338" depart="338.00">
        <route edges="8:2 2:0 0:9 9:10"/>
    </vehicle>
    <vehicle id="340" depart="340.00">
        <route edges="1:3 3:7"/>
    </vehicle>
    <vehicle id="343" depart="343.00">
        <route edges="2:0 0:1 1:5 5:6"/>
    </vehicle>
    <vehicle id="344" depart="344.00">
        <route edges="8:2 2:0 0:1"/>
    </vehicle>
    <vehicle id="345" depart="345.00">
        <route edges="6:5 5:1 1:3"/>
    </vehicle>
    <vehicle id="346" depart="346.00">
        <route edges="2:0 0:1 1:5"/>
    </vehicle>
    <vehicle id="347" depart="347.00">
        <route edges="2:0 0:1 1:3 3:7"/>
    </vehicle>
    <vehicle id="350" depart="350.00">
        <route edges="2:0 0:9"/>
    </vehicle>
    <vehicle id="351" depart="351.00">
        <route edges="2:0 0:1 1:5"/>
    </vehicle>
    <vehicle id="352" depart="352.00">
        <route edges="8:2 2:0 0:1 1:3 3:7"/>
    </vehicle>
    <vehicle id="353" depart="353.00">
        <route edges="8:2 2:0 0:1 1:5 5:6"/>
    </vehicle>
    <vehicle id="354" depart="354.00">
        <route edges="0:1 1:3"/>
    </vehicle>
    <vehicle id="356" depart="356.00">
        <route edges="6:5 5:1"/>
    </vehicle>
    <vehicle id="358" depart="358.00">
        <route edges="9:0"/>
    </vehicle>
    <vehicle id="359" depart="359.00">
        <route edges="8:2 2:0 0:9"/>
    </vehicle>
    <vehicle id="360" depart="360.00">
        <route edges="3:1 1:0"/>
    </vehicle>
    <vehicle id="370" depart="370.00">
        <route edges="7:3 3:1 1:0 0:2 2:8"/>
    </vehicle>
    <vehicle id="375" depart="375.00">
        <route edges="7:3 3:1 1:0 0:9"/>
    </vehicle>
    <vehicle id="376" depart="376.00">
        <route edges="6:5 5:1 1:0 0:2 2:8"/>
    </vehicle>
    <vehicle id="378" depart="378.00">
        <route edges="1:3 3:7"/>
    </vehicle>
    <vehicle id="381" depart="381.00">
        <route edges="1:3 3:7"/>
    </vehicle>
    <vehicle id="382" depart="382.00">
        <route edges="8:2 2:0 0:1 1:5 5:6"/>
    </vehicle>
    <vehicle id="384" depart="384.00">
        <route edges="8:2 2:0 0:9"/>
    </vehicle>
    <vehicle id="385" depart="385.00">
        <route edges="7:3 3:1 1:0 0:9 9:10"/>
    </vehicle>
    <vehicle id="387" depart="387.00">
        <route edges="3:1 1:0 0:2 2:8"/>
    </vehicle>
    <vehicle id="390" depart="390.00">
        <route edges="1:3 3:7"/>
    </vehicle>
    <vehicle id="391" depart="391.00">
        <route edges="10:9 9:0 0:2 2:8"/>
    </vehicle>
    <vehicle id="392" depart="392.00">
        <route edges="3:1 1:0 0:2"/>
    </vehicle>
    <vehicle id="393" depart="393.00">
        <route edges="7:3 3:1 1:0"/>
    </vehicle>
    <vehicle id="395" depart="395.00">
        <route edges="8:2 2:0 0:1 1:5 5:6"/>
    </vehicle>
    <vehicle id="398" depart="398.00">
        <route edges="8:2 2:0"/>
    </vehicle>
    <vehicle id="401" depart="401.00">
        <route edges="8:2 2:0 0:1 1:3 3:7"/>
    </vehicle>
    <vehicle id="402" depart="402.00">
        <route edges="1:3 3:7"/>
    </vehicle>
    <vehicle id="404" depart="404.00">
        <route edges="7:3 3:1 1:0 0:2"/>
    </vehicle>
    <vehicle id="405" depart="405.00">
        <route edges="7:3 3:1 1:0 0:2 2:8"/>
    </vehicle>
    <vehicle id="409" depart="409.00">
        <route edges="2:0 0:1 1:5"/>
    </vehicle>
    <vehicle id="414" depart="414.00">
        <route edges="2:0 0:1 1:3 3:7"/>
    </vehicle>
    <vehicle id="418" depart="418.00">
        <route edges="8:2 2:0 0:1 1:3 3:7"/>
    </vehicle>
    <vehicle id="420" depart="420.00">
        <route edges="7:3 3:1 1:0 0:9 9:10"/>
    </vehicle>
    <vehicle id="424" depart="424.00">
        <route edges="8:2 2:0"/>
    </vehicle>
    <vehicle id="426" depart="426.00">
        <route edges="8:2 2:0"/>
    </vehicle>
    <vehicle id="428" depart="428.00">
        <route edges="5:1 1:0 0:2"/>
    </vehicle>
    <vehicle id="432" depart="432.00">
        <route edges="1:3 3:7"/>
    </vehicle>
    <vehicle id="435" depart="435.00">
        <route edges="7:3 3:1 1:0 0:2 2:8"/>
    </vehicle>
    <vehicle id="436" depart="436.00">
        <route edges="2:0 0:1 1:3 3:7"/>
    </vehicle>
    <vehicle id="437" depart="437.00">
        <route edges="2:0 0:1 1:3 3:7"/>
    </vehicle>
    <vehicle id="440" depart="440.00">
        <route edges="8:2 2:0"/>
    </vehicle>
    <vehicle id="444" depart="444.00">
        <route edges="8:2 2:0 0:9"/>
    </vehicle>
    <vehicle id="446" depart="446.00">
        <route edges="7:3 3:1 1:0 0:9 9:10"/>
    </vehicle>
    <vehicle id="451" depart="451.00">
        <route edges="8:2 2:0 0:1 1:5"/>
    </vehicle>
    <vehicle id="460" depart="460.00">
        <route edges="7:3 3:1 1:5"/>
    </vehicle>
    <vehicle id="469" depart="469.00">
        <route edges="7:3 3:1 1:0 0:9"/>
    </vehicle>
    <vehicle id="470" depart="470.00">
        <route edges="0:1"/>
    </vehicle>
    <vehicle id="471" depart="471.00">
        <route edges="3:1 1:5"/>
    </vehicle>
    <vehicle id="472" depart="472.00">
        <route edges="8:2 2:0 0:1 1:3 3:7"/>
    </vehicle>
    <vehicle id="476" depart="476.00">
        <route edges="7:3 3:1 1:0 0:9 9:10"/>
    </vehicle>
    <vehicle id="477" depart="477.00">
        <route edges="7:3 3:1 1:0 0:2 2:8"/>
    </vehicle>
    <vehicle id="479" depart="479.00">
        <route edges="5:1 1:0 0:2 2:8"/>
    </vehicle>
    <vehicle id="480" depart="480.00">
        <route edges="6:5 5:1 1:3 3:7"/>
    </vehicle>
    <vehicle id="481" depart="481.00">
        <route edges="2:0 0:9 9:10"/>
    </vehicle>
    <vehicle id="483" depart="483.00">
        <route edges="6:5 5:1 1:0 0:2"/>
    </vehicle>
    <vehicle id="484" depart="484.00">
        <route edges="7:3 3:1 1:0 0:9 9:10"/>
    </vehicle>
    <vehicle id="485" depart="485.00">
        <route edges="0:2"/>
    </vehicle>
    <vehicle id="487" depart="487.00">
        <route edges="6:5 5:1 1:0"/>
    </vehicle>
    <vehicle id="488" depart="488.00">
        <route edges="0:2 2:8"/>
    </vehicle>
    <vehicle id="489" depart="489.00">
        <route edges="8:2 2:0 0:1 1:3 3:7"/>
    </vehicle>
    <vehicle id="490" depart="490.00">
        <route edges="10:9 9:0 0:1 1:3 3:7"/>
    </vehicle>
    <vehicle id="491" depart="491.00">
        <route edges="3:1 1:5"/>
    </vehicle>
    <vehicle id="492" depart="492.00">
        <route edges="8:2 2:0 0:1 1:3 3:7"/>
    </vehicle>
    <vehicle id="493" depart="493.00">
        <route edges="3:1 1:0 0:2 2:8"/>
    </vehicle>
    <vehicle id="497" depart="497.00">
        <route edges="0:1 1:3 3:7"/>
    </vehicle>
    <vehicle id="501" depart="501.00">
        <route edges="2:0 0:1 1:3 3:7"/>
    </vehicle>
    <vehicle id="509" depart="509.00">
        <route edges="7:3 3:1 1:0 0:2 2:8"/>
    </vehicle>
    <vehicle id="512" depart="512.00">
        <route edges="8:2 2:0 0:1 1:5 5:6"/>
    </vehicle>
    <vehicle id="513" depart="513.00">
        <route edges="10:9 9:0 0:1 1:3 3:7"/>
    </vehicle>
    <vehicle id="515" depart="515.00">
        <route edges="8:2 2:0 0:1 1:3 3:7"/>
    </vehicle>
    <vehicle id="516" depart="516.00">
        <route edges="9:0 0:1 1:3 3:7"/>
    </vehicle>
    <vehicle id="519" depart="519.00">
        <route edges="6:5 5:1 1:3 3:7"/>
    </vehicle>
    <vehicle id="520" depart="520.00">
        <route edges="10:9 9:0 0:1 1:3 3:7"/>
    </vehicle>
    <vehicle id="525" depart="525.00">
        <route edges="8:2 2:0 0:1 1:3"/>
    </vehicle>
    <vehicle id="527" depart="527.00">
        <route edges="8:2 2:0 0:1 1:3"/>
    </vehicle>
    <vehicle id="528" depart="528.00">
        <route edges="8:2 2:0 0:1 1:5 5:6"/>
    </vehicle>
    <vehicle id="529" depart="529.00">
        <route edges="10:9 9:0"/>
    </vehicle>
    <vehicle id="531" depart="531.00">
        <route edges="10:9 9:0 0:2 2:8"/>
    </vehicle>
    <vehicle id="532" depart="532.00">
        <route edges="7:3 3:1 1:0 0:2"/>
    </vehicle>
    <vehicle id="533" depart="533.00">
        <route edges="6:5 5:1 1:3 3:7"/>
    </vehicle>
    <vehicle id="534" depart="534.00">
        <route edges="7:3 3:1 1:0 0:2 2:8"/>
    </vehicle>
    <vehicle id="535" depart="535.00">
        <route edges="7:3 3:1 1:0 0:2 2:8"/>
    </vehicle>
    <vehicle id="537" depart="537.00">
        <route edges="1:0 0:9 9:10"/>
    </vehicle>
    <vehicle id="539" depart="539.00">
        <route edges="7:3 3:1 1:0 0:9"/>
    </vehicle>
    <vehicle id="540" depart="540.00">
        <route edges="3:1 1:0 0:9 9:10"/>
    </vehicle>
    <vehicle id="541" depart="541.00">
        <route edges="8:2 2:0 0:1 1:3 3:7"/>
    </vehicle>
    <vehicle id="542" depart="542.00">
        <route edges="0:2 2:8"/>
    </vehicle>
    <vehicle id="544" depart="544.00">
        <route edges="0:1"/>
    </vehicle>
    <vehicle id="546" depart="546.00">
        <route edges="6:5 5:1 1:0 0:2 2:8"/>
    </vehicle>
    <vehicle id="548" depart="548.00">
        <route edges="7:3 3:1 1:0 0:9 9:10"/>
    </vehicle>
    <vehicle id="550" depart="550.00">
        <route edges="8:2 2:0 0:9"/>
    </vehicle>
    <vehicle id="554" depart="554.00">
        <route edges="7:3 3:1 1:5"/>
    </vehicle>
    <vehicle id="556" depart="556.00">
        <route edges="0:1 1:3"/>
    </vehicle>
    <vehicle id="563" depart="563.00">
        <route edges="8:2 2:0 0:1 1:5"/>
    </vehicle>
    <vehicle id="573" depart="573.00">
        <route edges="8:2 2:0 0:1"/>
    </vehicle>
    <vehicle id="574" depart="574.00">
        <route edges="8:2 2:0 0:1 1:3 3:7"/>
    </vehicle>
    <vehicle id="575" depart="575.00">
        <route edges="3:1"/>
    </vehicle>
    <vehicle id="576" depart="576.00">
        <route edges="10:9 9:0 0:1 1:3 3:7"/>
    </vehicle>
    <vehicle id="577" depart="577.00">
        <route edges="5:1 1:0 0:2"/>
    </vehicle>
    <vehicle id="578" depart="578.00">
        <route edges="8:2 2:0 0:1 1:5 5:6"/>
    </vehicle>
    <vehicle id="579" depart="579.00">
        <route edges="8:2 2:0 0:1 1:3 3:7"/>
    </vehicle>
    <vehicle id="580" depart="580.00">
        <route edges="0:2"/>
    </vehicle>
    <vehicle id="585" depart="585.00">
        <route edges="2:0"/>
    </vehicle>
    <vehicle id="587" depart="587.00">
        <route edges="6:5 5:1 1:0 0:9 9:10"/>
    </vehicle>
    <vehicle id="588" depart="588.00">
        <route edges="0:1 1:3 3:7"/>
    </vehicle>
    <vehicle id="589" depart="589.00">
        <route edges="7:3 3:1 1:0"/>
    </vehicle>
    <vehicle id="590" depart="590.00">
        <route edges="5:1 1:0 0:9 9:10"/>
    </vehicle>
    <vehicle id="593" depart="593.00">
        <route edges="8:2 2:0 0:1 1:3 3:7"/>
    </vehicle>
    <vehicle id="594" depart="594.00">
        <route edges="6:5 5:1 1:0 0:2"/>
    </vehicle>
    <vehicle id="595" depart="595.00">
        <route edges="9:0 0:2 2:8"/>
    </vehicle>
    <vehicle id="598" depart="598.00">
        <route edges="7:3 3:1 1:0 0:2 2:8"/>
    </vehicle>
    <vehicle id="605" depart="605.00">
        <route edges="0:2 2:8"/>
    </vehicle>
    <vehicle id="606" depart="606.00">
        <route edges="2:0 0:1 1:3"/>
    </vehicle>
    <vehicle id="612" depart="612.00">
        <route edges="0:2 2:8"/>
    </vehicle>
    <vehicle id="614" depart="614.00">
        <route edges="2:0 0:9 9:10"/>
    </vehicle>
    <vehicle id="615" depart="615.00">
        <route edges="0:1 1:5 5:6"/>
    </vehicle>
    <vehicle id="616" depart="616.00">
        <route edges="7:3 3:1 1:0 0:2 2:8"/>
    </vehicle>
    <vehicle id="617" depart="617.00">
        <route edges="1:0 0:2 2:8"/>
    </vehicle>
    <vehicle id="620" depart="620.00">
        <route edges="7:3 3:1 1:0 0:2 2:8"/>
    </vehicle>
    <vehicle id="621" depart="621.00">
        <route edges="7:3 3:1 1:5 5:6"/>
    </vehicle>
    <vehicle id="624" depart="624.00">
        <route edges="9:0 0:2"/>
    </vehicle>
    <vehicle id="627" depart="627.00">
        <route edges="7:3 3:1 1:0 0:2 2:8"/>
    </vehicle>
    <vehicle id="631" depart="631.00">
        <route edges="8:2 2:0 0:1"/>
    </vehicle>
    <vehicle id="633" depart="633.00">
        <route edges="7:3 3:1 1:5 5:6"/>
    </vehicle>
    <vehicle id="636" depart="636.00">
        <route edges="0:9"/>
    </vehicle>
    <vehicle id="637" depart="637.00">
        <route edges="7:3 3:1 1:0 0:2 2:8"/>
    </vehicle>
    <vehicle id="638" depart="638.00">
        <route edges="3:1 1:0 0:2 2:8"/>
    </vehicle>
    <vehicle id="640" depart="640.00">
        <route edges="6:5 5:1 1:3 3:7"/>
    </vehicle>
    <vehicle id="641" depart="641.00">
        <route edges="8:2 2:0 0:1 1:3 3:7"/>
    </vehicle>
    <vehicle id="642" depart="642.00">
        <route edges="2:0 0:1"/>
    </vehicle>
    <vehicle id="644" depart="644.00">
        <route edges="2:0 0:1 1:5 5:6"/>
    </vehicle>
    <vehicle id="648" depart="648.00">
        <route edges="8:2 2:0 0:1 1:5"/>
    </vehicle>
    <vehicle id="649" depart="649.00">
        <route edges="8:2 2:0 0:1 1:3 3:7"/>
    </vehicle>
    <vehicle id="651" depart="651.00">
        <route edges="2:0 0:9 9:10"/>
    </vehicle>
    <vehicle id="652" depart="652.00">
        <route edges="10:9 9:0 0:1 1:3 3:7"/>
    </vehicle>
    <vehicle id="654" depart="654.00">
        <route edges="7:3 3:1 1:5"/>
    </vehicle>
    <vehicle id="658" depart="658.00">
        <route edges="3:1 1:0 0:2 2:8"/>
    </vehicle>
    <vehicle id="659" depart="659.00">
        <route edges="6:5 5:1 1:3"/>
    </vehicle>
    <vehicle id="662" depart="662.00">
        <route edges="8:2 2:0 0:9 9:10"/>
    </vehicle>
    <vehicle id="672" depart="672.00">