<?xml version="1.0" encoding="UTF-8"?>

<!-- generated on Thu Feb 13 14:16:22 2014 by SUMO duarouter Version 0.18.0
<?xml version="1.0" encoding="UTF-8"?>

<configuration xmlns:xsi="http://www.w3.org/2001/XMLSchema-instance" xsi:noNamespaceSchemaLocation="http://sumo.sf.net/xsd/duarouterConfiguration.xsd">

    <input>
        <net-file value="twinT.net.xml"/>
        <trip-files value="experimentos/twinT.p0.7.10.trips.xml"/>
    </input>

    <output>
        <output-file value="experimentos/twinT.p0.7.10.rou.xml"/>
    </output>

    <processing>
        <ignore-errors value="true"/>
    </processing>

    <random_number>
        <random value="true"/>
    </random_number>

</configuration>
-->

<routes xmlns:xsi="http://www.w3.org/2001/XMLSchema-instance" xsi:noNamespaceSchemaLocation="http://sumo.sf.net/xsd/routes_file.xsd">
    <vehicle id="1" depart="0.70">
        <route edges="7:3 3:1 1:0 0:2 2:8"/>
    </vehicle>
    <vehicle id="2" depart="1.40">
        <route edges="7:3 3:1 1:5"/>
    </vehicle>
    <vehicle id="3" depart="2.10">
        <route edges="5:1 1:0"/>
    </vehicle>
    <vehicle id="4" depart="2.80">
        <route edges="8:2 2:0 0:9 9:10"/>
    </vehicle>
    <vehicle id="8" depart="5.60">
        <route edges="2:0 0:1 1:3"/>
    </vehicle>
    <vehicle id="13" depart="9.10">
        <route edges="8:2 2:0 0:1 1:5"/>
    </vehicle>
    <vehicle id="15" depart="10.50">
        <route edges="0:1 1:3 3:7"/>
    </vehicle>
    <vehicle id="17" depart="11.90">
        <route edges="5:1 1:3 3:7"/>
    </vehicle>
    <vehicle id="18" depart="12.60">
        <route edges="0:1 1:3 3:7"/>
    </vehicle>
    <vehicle id="19" depart="13.30">
        <route edges="2:0 0:9 9:10"/>
    </vehicle>
    <vehicle id="24" depart="16.80">
        <route edges="1:0 0:2 2:8"/>
    </vehicle>
    <vehicle id="25" depart="17.50">
        <route edges="6:5 5:1 1:0 0:9"/>
    </vehicle>
    <vehicle id="27" depart="18.90">
        <route edges="7:3 3:1 1:0 0:2 2:8"/>
    </vehicle>
    <vehicle id="29" depart="20.30">
        <route edges="0:2"/>
    </vehicle>
    <vehicle id="30" depart="21.00">
        <route edges="0:2"/>
    </vehicle>
    <vehicle id="31" depart="21.70">
        <route edges="8:2 2:0 0:1 1:3"/>
    </vehicle>
    <vehicle id="32" depart="22.40">
        <route edges="2:0 0:1 1:5"/>
    </vehicle>
    <vehicle id="34" depart="23.80">
        <route edges="3:1 1:0"/>
    </vehicle>
    <vehicle id="37" depart="25.90">
        <route edges="7:3 3:1 1:0 0:9 9:10"/>
    </vehicle>
    <vehicle id="39" depart="27.30">
        <route edges="1:3"/>
    </vehicle>
    <vehicle id="40" depart="28.00">
        <route edges="2:0 0:9 9:10"/>
    </vehicle>
    <vehicle id="41" depart="28.70">
        <route edges="5:1 1:3 3:7"/>
    </vehicle>
    <vehicle id="42" depart="29.40">
        <route edges="2:0 0:1 1:5"/>
    </vehicle>
    <vehicle id="43" depart="30.10">
        <route edges="7:3 3:1 1:0 0:2"/>
    </vehicle>
    <vehicle id="44" depart="30.80">
        <route edges="3:1"/>
    </vehicle>
    <vehicle id="46" depart="32.20">
        <route edges="0:1 1:3 3:7"/>
    </vehicle>
    <vehicle id="48" depart="33.60">
        <route edges="2:0 0:1 1:5 5:6"/>
    </vehicle>
    <vehicle id="52" depart="36.40">
        <route edges="1:0 0:2 2:8"/>
    </vehicle>
    <vehicle id="55" depart="38.50">
        <route edges="6:5 5:1 1:0 0:9 9:10"/>
    </vehicle>
    <vehicle id="57" depart="39.90">
        <route edges="9:0 0:2 2:8"/>
    </vehicle>
    <vehicle id="58" depart="40.60">
        <route edges="6:5 5:1 1:0 0:2"/>
    </vehicle>
    <vehicle id="61" depart="42.70">
        <route edges="3:1 1:0 0:2 2:8"/>
    </vehicle>
    <vehicle id="62" depart="43.40">
        <route edges="9:0 0:2 2:8"/>
    </vehicle>
    <vehicle id="65" depart="45.50">
        <route edges="2:0"/>
    </vehicle>
    <vehicle id="66" depart="46.20">
        <route edges="10:9 9:0 0:1 1:3 3:7"/>
    </vehicle>
    <vehicle id="67" depart="46.90">
        <route edges="0:2"/>
    </vehicle>
    <vehicle id="68" depart="47.60">
        <route edges="8:2 2:0 0:1 1:3"/>
    </vehicle>
    <vehicle id="69" depart="48.30">
        <route edges="7:3 3:1 1:0"/>
    </vehicle>
    <vehicle id="73" depart="51.10">
        <route edges="5:1 1:0 0:2"/>
    </vehicle>
    <vehicle id="78" depart="54.60">
        <route edges="3:1 1:0 0:9 9:10"/>
    </vehicle>
    <vehicle id="81" depart="56.70">
        <route edges="2:0"/>
    </vehicle>
    <vehicle id="82" depart="57.40">
        <route edges="3:1 1:0 0:9"/>
    </vehicle>
    <vehicle id="86" depart="60.20">
        <route edges="6:5 5:1 1:0 0:2"/>
    </vehicle>
    <vehicle id="87" depart="60.90">
        <route edges="7:3 3:1 1:0 0:9"/>
    </vehicle>
    <vehicle id="90" depart="63.00">
        <route edges="2:0 0:1 1:3"/>
    </vehicle>
    <vehicle id="92" depart="64.40">
        <route edges="6:5 5:1 1:3 3:7"/>
    </vehicle>
    <vehicle id="95" depart="66.50">
        <route edges="10:9 9:0 0:1 1:5"/>
    </vehicle>
    <vehicle id="96" depart="67.20">
        <route edges="9:0 0:2"/>
    </vehicle>
    <vehicle id="97" depart="67.90">
        <route edges="8:2 2:0"/>
    </vehicle>
    <vehicle id="100" depart="70.00">
        <route edges="7:3 3:1 1:5 5:6"/>
    </vehicle>
    <vehicle id="103" depart="72.10">
        <route edges="7:3 3:1 1:0 0:2 2:8"/>
    </vehicle>
    <vehicle id="105" depart="73.50">
        <route edges="0:2 2:8"/>
    </vehicle>
    <vehicle id="107" depart="74.90">
        <route edges="0:2 2:8"/>
    </vehicle>
    <vehicle id="108" depart="75.60">
        <route edges="9:0 0:2 2:8"/>
    </vehicle>
    <vehicle id="109" depart="76.30">
        <route edges="6:5 5:1 1:0 0:2 2:8"/>
    </vehicle>
    <vehicle id="112" depart="78.40">
        <route edges="1:3 3:7"/>
    </vehicle>
    <vehicle id="114" depart="79.80">
        <route edges="7:3 3:1"/>
    </vehicle>
    <vehicle id="116" depart="81.20">
        <route edges="2:0 0:1 1:3 3:7"/>
    </vehicle>
    <vehicle id="118" depart="82.60">
        <route edges="9:0 0:1"/>
    </vehicle>
    <vehicle id="119" depart="83.30">
        <route edges="0:1 1:3 3:7"/>
    </vehicle>
    <vehicle id="121" depart="84.70">
        <route edges="3:1 1:0 0:9 9:10"/>
    </vehicle>
    <vehicle id="122" depart="85.40">
        <route edges="5:1 1:0 0:2 2:8"/>
    </vehicle>
    <vehicle id="123" depart="86.10">
        <route edges="3:1 1:0 0:2 2:8"/>
    </vehicle>
    <vehicle id="124" depart="86.80">
        <route edges="3:1 1:0 0:9"/>
    </vehicle>
    <vehicle id="125" depart="87.50">
        <route edges="1:3"/>
    </vehicle>
    <vehicle id="128" depart="89.60">
        <route edges="0:2"/>
    </vehicle>
    <vehicle id="129" depart="90.30">
        <route edges="3:1"/>
    </vehicle>
    <vehicle id="131" depart="91.70">
        <route edges="6:5 5:1 1:0 0:9 9:10"/>
    </vehicle>
    <vehicle id="132" depart="92.40">
        <route edges="8:2 2:0 0:1 1:5 5:6"/>
    </vehicle>
    <vehicle id="134" depart="93.80">
        <route edges="7:3 3:1 1:0 0:2"/>
    </vehicle>
    <vehicle id="135" depart="94.50">
        <route edges="1:5"/>
    </vehicle>
    <vehicle id="136" depart="95.20">
        <route edges="7:3 3:1 1:0"/>
    </vehicle>
    <vehicle id="137" depart="95.90">
        <route edges="1:3 3:7"/>
    </vehicle>
    <vehicle id="139" depart="97.30">
        <route edges="7:3 3:1 1:0 0:2 2:8"/>
    </vehicle>
    <vehicle id="142" depart="99.40">
        <route edges="6:5 5:1 1:0 0:2 2:8"/>
    </vehicle>
    <vehicle id="143" depart="100.10">
        <route edges="3:1 1:0 0:2 2:8"/>
    </vehicle>
    <vehicle id="146" depart="102.20">
        <route edges="8:2 2:0 0:1 1:3"/>
    </vehicle>
    <vehicle id="147" depart="102.90">
        <route edges="0:2 2:8"/>
    </vehicle>
    <vehicle id="150" depart="105.00">
        <route edges="1:5"/>
    </vehicle>
    <vehicle id="156" depart="109.20">
        <route edges="5:1 1:0"/>
    </vehicle>
    <vehicle id="157" depart="109.90">
        <route edges="6:5 5:1 1:0 0:2 2:8"/>
    </vehicle>
    <vehicle id="158" depart="110.60">
        <route edges="3:1 1:0 0:2"/>
    </vehicle>
    <vehicle id="161" depart="112.70">
        <route edges="6:5 5:1 1:3 3:7"/>
    </vehicle>
    <vehicle id="163" depart="114.10">
        <route edges="7:3 3:1 1:0 0:2 2:8"/>
    </vehicle>
    <vehicle id="164" depart="114.80">
        <route edges="6:5 5:1 1:3 3:7"/>
    </vehicle>
    <vehicle id="165" depart="115.50">
        <route edges="10:9 9:0 0:2 2:8"/>
    </vehicle>
    <vehicle id="166" depart="116.20">
        <route edges="7:3 3:1 1:0 0:2"/>
    </vehicle>
    <vehicle id="169" depart="118.30">
        <route edges="6:5 5:1 1:3 3:7"/>
    </vehicle>
    <vehicle id="170" depart="119.00">
        <route edges="8:2 2:0 0:1 1:3"/>
    </vehicle>
    <vehicle id="175" depart="122.50">
        <route edges="7:3 3:1 1:0 0:2"/>
    </vehicle>
    <vehicle id="177" depart="123.90">
        <route edges="3:1 1:0 0:2 2:8"/>
    </vehicle>
    <vehicle id="179" depart="125.30">
        <route edges="7:3 3:1 1:0 0:2"/>
    </vehicle>
    <vehicle id="181" depart="126.70">
        <route edges="2:0 0:1 1:3"/>
    </vehicle>
    <vehicle id="182" depart="127.40">
        <route edges="7:3 3:1 1:0"/>
    </vehicle>
    <vehicle id="183" depart="128.10">
        <route edges="8:2 2:0 0:1"/>
    </vehicle>
    <vehicle id="184" depart="128.80">
        <route edges="0:2 2:8"/>
    </vehicle>
    <vehicle id="185" depart="129.50">
        <route edges="7:3 3:1 1:0 0:2 2:8"/>
    </vehicle>
    <vehicle id="186" depart="130.20">
        <route edges="7:3 3:1 1:0 0:2 2:8"/>
    </vehicle>
    <vehicle id="189" depart="132.30">
        <route edges="9:0 0:1 1:5 5:6"/>
    </vehicle>
    <vehicle id="191" depart="133.70">
        <route edges="7:3 3:1 1:5 5:6"/>
    </vehicle>
    <vehicle id="192" depart="134.40">
        <route edges="9:0"/>
    </vehicle>
    <vehicle id="199" depart="139.30">
        <route edges="10:9 9:0 0:1 1:5 5:6"/>
    </vehicle>
    <vehicle id="201" depart="140.70">
        <route edges="8:2 2:0 0:1 1:5 5:6"/>
    </vehicle>
    <vehicle id="202" depart="141.40">
        <route edges="9:0 0:1 1:3 3:7"/>
    </vehicle>
    <vehicle id="203" depart="142.10">
        <route edges="8:2 2:0 0:9 9:10"/>
    </vehicle>
    <vehicle id="204" depart="142.80">
        <route edges="8:2 2:0 0:1 1:5"/>
    </vehicle>
    <vehicle id="205" depart="143.50">
        <route edges="3:1 1:0 0:2"/>
    </vehicle>
    <vehicle id="206" depart="144.20">
        <route edges="7:3 3:1 1:0 0:9"/>
    </vehicle>
    <vehicle id="207" depart="144.90">
        <route edges="3:1 1:5"/>
    </vehicle>
    <vehicle id="211" depart="147.70">
        <route edges="7:3 3:1"/>
    </vehicle>
    <vehicle id="216" depart="151.20">
        <route edges="8:2 2:0 0:1 1:3 3:7"/>
    </vehicle>
    <vehicle id="219" depart="153.30">
        <route edges="10:9 9:0 0:2 2:8"/>
    </vehicle>
    <vehicle id="220" depart="154.00">
        <route edges="6:5 5:1 1:0 0:2"/>
    </vehicle>
    <vehicle id="221" depart="154.70">
        <route edges="6:5 5:1 1:3 3:7"/>
    </vehicle>
    <vehicle id="222" depart="155.40">
        <route edges="0:1 1:3"/>
    </vehicle>
    <vehicle id="223" depart="156.10">
        <route edges="9:0 0:1 1:3 3:7"/>
    </vehicle>
    <vehicle id="230" depart="161.00">
        <route edges="6:5 5:1"/>
    </vehicle>
    <vehicle id="231" depart="161.70">
        <route edges="10:9 9:0 0:1 1:3 3:7"/>
    </vehicle>
    <vehicle id="233" depart="163.10">
        <route edges="3:1 1:0 0:9 9:10"/>
    </vehicle>
    <vehicle id="239" depart="167.30">
        <route edges="3:1 1:5"/>
    </vehicle>
    <vehicle id="241" depart="168.70">
        <route edges="3:1 1:0 0:9 9:10"/>
    </vehicle>
    <vehicle id="243" depart="170.10">
        <route edges="6:5 5:1 1:3"/>
    </vehicle>
    <vehicle id="244" depart="170.80">
        <route edges="2:0 0:1"/>
    </vehicle>
    <vehicle id="245" depart="171.50">
        <route edges="1:3"/>
    </vehicle>
    <vehicle id="247" depart="172.90">
        <route edges="1:0 0:2"/>
    </vehicle>
    <vehicle id="249" depart="174.30">
        <route edges="3:1 1:0 0:9 9:10"/>
    </vehicle>
    <vehicle id="252" depart="176.40">
        <route edges="1:0 0:9 9:10"/>
    </vehicle>
    <vehicle id="253" depart="177.10">
        <route edges="2:0 0:1 1:3 3:7"/>
    </vehicle>
    <vehicle id="256" depart="179.20">
        <route edges="0:1 1:3"/>
    </vehicle>
    <vehicle id="257" depart="179.90">
        <route edges="8:2 2:0 0:9"/>
    </vehicle>
    <vehicle id="259" depart="181.30">
        <route edges="10:9 9:0 0:2 2:8"/>
    </vehicle>
    <vehicle id="260" depart="182.00">
        <route edges="8:2 2:0 0:1 1:3 3:7"/>
    </vehicle>
    <vehicle id="262" depart="183.40">
        <route edges="1:5"/>
    </vehicle>
    <vehicle id="263" depart="184.10">
        <route edges="7:3 3:1 1:0"/>
    </vehicle>
    <vehicle id="265" depart="185.50">
        <route edges="2:0 0:9 9:10"/>
    </vehicle>
    <vehicle id="266" depart="186.20">
        <route edges="0:1 1:3"/>
    </vehicle>
    <vehicle id="268" depart="187.60">
        <route edges="7:3 3:1 1:0 0:2 2:8"/>
    </vehicle>
    <vehicle id="270" depart="189.00">
        <route edges="8:2 2:0 0:1 1:3"/>
    </vehicle>
    <vehicle id="272" depart="190.40">
        <route edges="7:3 3:1 1:0 0:9"/>
    </vehicle>
    <vehicle id="273" depart="191.10">
        <route edges="8:2 2:0 0:9 9:10"/>
    </vehicle>
    <vehicle id="274" depart="191.80">
        <route edges="8:2 2:0 0:1 1:3 3:7"/>
    </vehicle>
    <vehicle id="276" depart="193.20">
        <route edges="2:0 0:1 1:3 3:7"/>
    </vehicle>
    <vehicle id="277" depart="193.90">
        <route edges="3:1"/>
    </vehicle>
    <vehicle id="278" depart="194.60">
        <route edges="8:2 2:0 0:1 1:3 3:7"/>
    </vehicle>
    <vehicle id="280" depart="196.00">
        <route edges="10:9 9:0 0:1 1:5 5:6"/>
    </vehicle>
    <vehicle id="281" depart="196.70">
        <route edges="5:1 1:0 0:2 2:8"/>
    </vehicle>
    <vehicle id="282" depart="197.40">
        <route edges="0:1 1:5"/>
    </vehicle>
    <vehicle id="283" depart="198.10">
        <route edges="7:3 3:1"/>
    </vehicle>
    <vehicle id="284" depart="198.80">
        <route edges="3:1 1:5 5:6"/>
    </vehicle>
    <vehicle id="285" depart="199.50">
        <route edges="7:3 3:1 1:5"/>
    </vehicle>
    <vehicle id="291" depart="203.70">
        <route edges="8:2 2:0 0:1"/>
    </vehicle>
    <vehicle id="294" depart="205.80">
        <route edges="6:5 5:1 1:3"/>
    </vehicle>
    <vehicle id="295" depart="206.50">
        <route edges="5:1 1:3"/>
    </vehicle>
    <vehicle id="296" depart="207.20">
        <route edges="8:2 2:0 0:1 1:3 3:7"/>
    </vehicle>
    <vehicle id="298" depart="208.60">
        <route edges="2:0"/>
    </vehicle>
    <vehicle id="299" depart="209.30">
        <route edges="10:9 9:0 0:1 1:3"/>
    </vehicle>
    <vehicle id="300" depart="210.00">
        <route edges="6:5 5:1 1:3"/>
    </vehicle>
    <vehicle id="303" depart="212.10">
        <route edges="1:0 0:2 2:8"/>
    </vehicle>
    <vehicle id="305" depart="213.50">
        <route edges="8:2 2:0 0:1 1:3"/>
    </vehicle>
    <vehicle id="306" depart="214.20">
        <route edges="7:3 3:1 1:0 0:2"/>
    </vehicle>
    <vehicle id="307" depart="214.90">
        <route edges="9:0 0:2 2:8"/>
    </vehicle>
    <vehicle id="310" depart="217.00">
        <route edges="2:0 0:9 9:10"/>
    </vehicle>
    <vehicle id="314" depart="219.80">
        <route edges="10:9 9:0 0:2"/>
    </vehicle>
    <vehicle id="320" depart="224.00">
        <route edges="8:2 2:0 0:1 1:3"/>
    </vehicle>
    <vehicle id="321" depart="224.70">
        <route edges="7:3 3:1 1:5"/>
    </vehicle>
    <vehicle id="325" depart="227.50">
        <route edges="5:1 1:0 0:2"/>
    </vehicle>
    <vehicle id="326" depart="228.20">
        <route edges="6:5 5:1 1:3"/>
    </vehicle>
    <vehicle id="328" depart="229.60">
        <route edges="1:0 0:2 2:8"/>
    </vehicle>
    <vehicle id="331" depart="231.70">
        <route edges="7:3 3:1"/>
    </vehicle>
    <vehicle id="334" depart="233.80">
        <route edges="8:2 2:0 0:9 9:10"/>
    </vehicle>
    <vehicle id="335" depart="234.50">
        <route edges="9:0 0:2 2:8"/>
    </vehicle>
    <vehicle id="336" depart="235.20">
        <route edges="8:2 2:0"/>
    </vehicle>
    <vehicle id="337" depart="235.90">
        <route edges="10:9 9:0 0:2 2:8"/>
    </vehicle>
    <vehicle id="338" depart="236.60">
        <route edges="7:3 3:1 1:0 0:2"/>
    </vehicle>
    <vehicle id="340" depart="238.00">
        <route edges="5:1 1:0 0:2"/>
    </vehicle>
    <vehicle id="341" depart="238.70">
        <route edges="10:9 9:0 0:2 2:8"/>
    </vehicle>
    <vehicle id="342" depart="239.40">
        <route edges="3:1 1:0 0:2 2:8"/>
    </vehicle>
    <vehicle id="348" depart="243.60">
        <route edges="5:1 1:3 3:7"/>
    </vehicle>
    <vehicle id="349" depart="244.30">
        <route edges="5:1 1:0 0:9 9:10"/>
    </vehicle>
    <vehicle id="350" depart="245.00">
        <route edges="2:0 0:1 1:3 3:7"/>
    </vehicle>
    <vehicle id="354" depart="247.80">
        <route edges="0:1 1:3"/>
    </vehicle>
    <vehicle id="355" depart="248.50">
        <route edges="6:5 5:1 1:0 0:2"/>
    </vehicle>
    <vehicle id="356" depart="249.20">
        <route edges="6:5 5:1 1:0 0:2 2:8"/>
    </vehicle>
    <vehicle id="358" depart="250.60">
        <route edges="8:2 2:0 0:1"/>
    </vehicle>
    <vehicle id="359" depart="251.30">
        <route edges="7:3 3:1"/>
    </vehicle>
    <vehicle id="363" depart="254.10">
        <route edges="0:2 2:8"/>
    </vehicle>
    <vehicle id="364" depart="254.80">
        <route edges="10:9 9:0 0:1 1:5 5:6"/>
    </vehicle>
    <vehicle id="368" depart="257.60">
        <route edges="7:3 3:1 1:0 0:2 2:8"/>
    </vehicle>
    <vehicle id="371" depart="259.70">
        <route edges="0:1 1:5 5:6"/>
    </vehicle>
    <vehicle id="373" depart="261.10">
        <route edges="0:2"/>
    </vehicle>
    <vehicle id="374" depart="261.80">
        <route edges="8:2 2:0"/>
    </vehicle>
    <vehicle id="375" depart="262.50">
        <route edges="2:0 0:1 1:5 5:6"/>
    </vehicle>
    <vehicle id="377" depart="263.90">
        <route edges="8:2 2:0 0:9 9:10"/>
    </vehicle>
    <vehicle id="378" depart="264.60">
        <route edges="10:9 9:0 0:1 1:3 3:7"/>
    </vehicle>
    <vehicle id="379" depart="265.30">
        <route edges="8:2 2:0"/>
    </vehicle>
    <vehicle id="380" depart="266.00">
        <route edges="10:9 9:0 0:2 2:8"/>
    </vehicle>
    <vehicle id="382" depart="267.40">
        <route edges="7:3 3:1 1:0 0:9"/>
    </vehicle>
    <vehicle id="384" depart="268.80">
        <route edges="10:9 9:0 0:2"/>
    </vehicle>
    <vehicle id="385" depart="269.50">
        <route edges="1:0 0:2 2:8"/>
    </vehicle>
    <vehicle id="390" depart="273.00">
        <route edges="7:3 3:1 1:0 0:2 2:8"/>
    </vehicle>
    <vehicle id="392" depart="274.40">
        <route edges="7:3 3:1"/>
    </vehicle>
    <vehicle id="393" depart="275.10">
        <route edges="8:2 2:0 0:1"/>
    </vehicle>
    <vehicle id="395" depart="276.50">
        <route edges="1:3 3:7"/>
    </vehicle>
    <vehicle id="397" depart="277.90">
        <route edges="8:2 2:0 0:1 1:5 5:6"/>
    </vehicle>
    <vehicle id="398" depart="278.60">
        <route edges="8:2 2:0 0:1 1:3"/>
    </vehicle>
    <vehicle id="400" depart="280.00">
        <route edges="7:3 3:1 1:0 0:2"/>
    </vehicle>
    <vehicle id="402" depart="281.40">
        <route edges="8:2 2:0 0:9 9:10"/>
    </vehicle>
    <vehicle id="405" depart="283.50">
        <route edges="7:3 3:1 1:0 0:2 2:8"/>
    </vehicle>
    <vehicle id="406" depart="284.20">
        <route edges="8:2 2:0 0:1 1:3"/>
    </vehicle>
    <vehicle id="411" depart="287.70">
        <route edges="1:3"/>
    </vehicle>
    <vehicle id="414" depart="289.80">
        <route edges="0:1 1:5 5:6"/>
    </vehicle>
    <vehicle id="418" depart="292.60">
        <route edges="6:5 5:1 1:0"/>
    </vehicle>
    <vehicle id="419" depart="293.30">
        <route edges="9:0 0:1 1:3 3:7"/>
    </vehicle>
    <vehicle id="420" depart="294.00">
        <route edges="3:1 1:0"/>
    </vehicle>
    <vehicle id="421" depart="294.70">
        <route edges="3:1"/>
    </vehicle>
    <vehicle id="423" depart="296.10">
        <route edges="10:9 9:0 0:1 1:3 3:7"/>
    </vehicle>
    <vehicle id="424" depart="296.80">
        <route edges="3:1"/>
    </vehicle>
    <vehicle id="427" depart="298.90">
        <route edges="3:1 1:0 0:9 9:10"/>
    </vehicle>
    <vehicle id="428" depart="299.60">
        <route edges="3:1 1:0 0:2 2:8"/>
    </vehicle>
    <vehicle id="429" depart="300.30">
        <route edges="5:1 1:0 0:2"/>
    </vehicle>
    <vehicle id="430" depart="301.00">
        <route edges="8:2 2:0 0:9 9:10"/>
    </vehicle>
    <vehicle id="431" depart="301.70">
        <route edges="8:2 2:0 0:1"/>
    </vehicle>
    <vehicle id="432" depart="302.40">
        <route edges="6:5 5:1 1:0"/>
    </vehicle>
    <vehicle id="433" depart="303.10">
        <route edges="8:2 2:0 0:1"/>
    </vehicle>
    <vehicle id="438" depart="306.60">
        <route edges="2:0"/>
    </vehicle>
    <vehicle id="439" depart="307.30">
        <route edges="3:1 1:0 0:9 9:10"/>
    </vehicle>
    <vehicle id="440" depart="308.00">
        <route edges="8:2 2:0 0:1 1:3 3:7"/>
    </vehicle>
    <vehicle id="441" depart="308.70">
        <route edges="1:0 0:2 2:8"/>
    </vehicle>
    <vehicle id="443" depart="310.10">
        <route edges="8:2 2:0 0:1 1:5"/>
    </vehicle>
    <vehicle id="447" depart="312.90">
        <route edges="5:1 1:0"/>
    </vehicle>
    <vehicle id="449" depart="314.30">
        <route edges="0:2 2:8"/>
    </vehicle>
    <vehicle id="451" depart="315.70">
        <route edges="10:9 9:0 0:2 2:8"/>
    </vehicle>
    <vehicle id="456" depart="319.20">
        <route edges="8:2 2:0 0:1 1:3"/>
    </vehicle>
    <vehicle id="457" depart="319.90">
        <route edges="1:3 3:7"/>
    </vehicle>
    <vehicle id="458" depart="320.60">
        <route edges="3:1 1:0 0:9 9:10"/>
    </vehicle>
    <vehicle id="459" depart="321.30">
        <route edges="5:1 1:3 3:7"/>
    </vehicle>
    <vehicle id="460" depart="322.00">
        <route edges="8:2 2:0 0:1 1:3"/>
    </vehicle>
    <vehicle id="465" depart="325.50">
        <route edges="2:0 0:1 1:3 3:7"/>
    </vehicle>
    <vehicle id="466" depart="326.20">
        <route edges="9:0 0:2 2:8"/>
    </vehicle>
    <vehicle id="467" depart="326.90">
        <route edges="10:9 9:0 0:1 1:3 3:7"/>
    </vehicle>
    <vehicle id="471" depart="329.70">
        <route edges="1:3 3:7"/>
    </vehicle>
    <vehicle id="473" depart="331.10">
        <route edges="6:5 5:1 1:3 3:7"/>
    </vehicle>
    <vehicle id="475" depart="332.50">
        <route edges="0:2 2:8"/>
    </vehicle>
    <vehicle id="480" depart="336.00">
        <route edges="10:9 9:0 0:2 2:8"/>
    </vehicle>
    <vehicle id="482" depart="337.40">
        <route edges="3:1 1:0 0:2 2:8"/>
    </vehicle>
    <vehicle id="484" depart="338.80">
        <route edges="7:3 3:1 1:5 5:6"/>
    </vehicle>
    <vehicle id="485" depart="339.50">
        <route edges="7:3 3:1 1:0 0:9"/>
    </vehicle>
    <vehicle id="490" depart="343.00">
        <route edges="6:5 5:1"/>
    </vehicle>
    <vehicle id="494" depart="345.80">
        <route edges="8:2 2:0 0:1 1:3 3:7"/>
    </vehicle>
    <vehicle id="499" depart="349.30">
        <route edges="8:2 2:0 0:1 1:5 5:6"/>
    </vehicle>
    <vehicle id="501" depart="350.70">
        <route edges="6:5 5:1"/>
    </vehicle>
    <vehicle id="503" depart="352.10">
        <route edges="7:3 3:1 1:0 0:9 9:10"/>
    </vehicle>
    <vehicle id="504" depart="352.80">
        <route edges="3:1 1:5 5:6"/>
    </vehicle>
    <vehicle id="505" depart="353.50">
        <route edges="7:3 3:1 1:0 0:2"/>
    </vehicle>
    <vehicle id="511" depart="357.70">
        <route edges="2:0 0:1 1:3 3:7"/>
    </vehicle>
    <vehicle id="513" depart="359.10">
        <route edges="10:9 9:0 0:2 2:8"/>
    </vehicle>
    <vehicle id="515" depart="360.50">
        <route edges="6:5 5:1 1:0 0:2 2:8"/>
    </vehicle>
    <vehicle id="518" depart="362.60">
        <route edges="8:2 2:0 0:1 1:5 5:6"/>
    </vehicle>
    <vehicle id="519" depart="363.30">
        <route edges="9:0 0:1 1:3 3:7"/>
    </vehicle>
    <vehicle id="520" depart="364.00">
        <route edges="3:1 1:0 0:2"/>
    </vehicle>
    <vehicle id="521" depart="364.70">
        <route edges="6:5 5:1 1:3"/>
    </vehicle>
    <vehicle id="523" depart="366.10">
        <route edges="1:3"/>
    </vehicle>
    <vehicle id="524" depart="366.80">
        <route edges="7:3 3:1 1:0 0:2"/>
    </vehicle>
    <vehicle id="525" depart="367.50">
        <route edges="8:2 2:0 0:1 1:3 3:7"/>
    </vehicle>
    <vehicle id="526" depart="368.20">
        <route edges="6:5 5:1 1:0"/>
    </vehicle>
    <vehicle id="527" depart="368.90">
        <route edges="7:3 3:1"/>
    </vehicle>
    <vehicle id="529" depart="370.30">
        <route edges="7:3 3:1"/>
    </vehicle>
    <vehicle id="531" depart="371.70">
        <route edges="10:9 9:0 0:1 1:3 3:7"/>
    </vehicle>
    <vehicle id="534" depart="373.80">
        <route edges="8:2 2:0"/>
    </vehicle>
    <vehicle id="537" depart="375.90">
        <route edges="7:3 3:1 1:0 0:2 2:8"/>
    </vehicle>
    <vehicle id="539" depart="377.30">
        <route edges="0:2"/>
    </vehicle>
    <vehicle id="540" depart="378.00">
        <route edges="8:2 2:0 0:9 9:10"/>
    </vehicle>
    <vehicle id="542" depart="379.40">
        <route edges="3:1 1:0 0:2"/>
    </vehicle>
    <vehicle id="543" depart="380.10">
        <route edges="3:1 1:0 0:9"/>
    </vehicle>
    <vehicle id="544" depart="380.80">
        <route edges="8:2 2:0 0:9 9:10"/>
    </vehicle>
    <vehicle id="545" depart="381.50">
        <route edges="6:5 5:1"/>
    </vehicle>
    <vehicle id="547" depart="382.90">
        <route edges="8:2 2:0 0:9"/>
    </vehicle>
    <vehicle id="549" depart="384.30">
        <route edges="3:1 1:0 0:2"/>
    </vehicle>
    <vehicle id="551" depart="385.70">
        <route edges="7:3 3:1 1:0"/>
    </vehicle>
    <vehicle id="552" depart="386.40">
        <route edges="8:2 2:0 0:1 1:5"/>
    </vehicle>
    <vehicle id="553" depart="387.10">
        <route edges="8:2 2:0 0:1 1:3"/>
    </vehicle>
    <vehicle id="555" depart="388.50">
        <route edges="7:3 3:1 1:0 0:2 2:8"/>
    </vehicle>
    <vehicle id="559" depart="391.30">
        <route edges="1:0 0:2"/>
    </vehicle>
    <vehicle id="562" depart="393.40">
        <route edges="1:0 0:9 9:10"/>
    </vehicle>
    <vehicle id="563" depart="394.10">
        <route edges="5:1 1:3 3:7"/>
    </vehicle>
    <vehicle id="564" depart="394.80">
        <route edges="0:2 2:8"/>
    </vehicle>
    <vehicle id="565" depart="395.50">
        <route edges="0:9 9:10"/>
    </vehicle>
    <vehicle id="567" depart="396.90">
        <route edges="6:5 5:1 1:0 0:9"/>
    </vehicle>
    <vehicle id="568" depart="397.60">
        <route edges="3:1"/>
    </vehicle>
    <vehicle id="569" depart="398.30">
        <route edges="10:9 9:0 0:1 1:3"/>
    </vehicle>
    <vehicle id="572" depart="400.40">
        <route edges="5:1 1:0"/>
    </vehicle>
    <vehicle id="574" depart="401.80">
        <route edges="8:2 2:0 0:1 1:5"/>
    </vehicle>
    <vehicle id="575" depart="402.50">
        <route edges="8:2 2:0 0:1 1:3 3:7"/>
    </vehicle>
    <vehicle id="579" depart="405.30">
        <route edges="6:5 5:1"/>
    </vehicle>
    <vehicle id="581" depart="406.70">
        <route edges="8:2 2:0 0:1 1:5 5:6"/>
    </vehicle>
    <vehicle id="584" depart="408.80">
        <route edges="3:1 1:0 0:2 2:8"/>
    </vehicle>
    <vehicle id="590" depart="413.00">
        <route edges="8:2 2:0 0:1 1:3"/>
    </vehicle>
    <vehicle id="592" depart="414.40">
        <route edges="2:0 0:1 1:3"/>
    </vehicle>
    <vehicle id="593" depart="415.10">
        <route edges="7:3 3:1"/>
    </vehicle>
    <vehicle id="594" depart="415.80">
        <route edges="7:3 3:1 1:5 5:6"/>
    </vehicle>
    <vehicle id="596" depart="417.20">
        <route edges="7:3 3:1 1:0 0:9 9:10"/>
    </vehicle>
    <vehicle id="598" depart="418.60">
        <route edges="8:2 2:0 0:1 1:3 3:7"/>
    </vehicle>
    <vehicle id="600" depart="420.00">
        <route edges="7:3 3:1 1:0 0:2"/>
    </vehicle>
    <vehicle id="603" depart="422.10">
        <route edges="8:2 2:0 0:1 1:3 3:7"/>
    </vehicle>
    <vehicle id="604" depart="422.80">
        <route edges="8:2 2:0"/>
    </vehicle>
    <vehicle id="607" depart="424.90">
        <route edges="7:3 3:1 1:0"/>
    </vehicle>
    <vehicle id="610" depart="427.00">
        <route edges="10:9 9:0 0:2"/>
    </vehicle>
    <vehicle id="615" depart="430.50">
        <route edges="10:9 9:0 0:1 1:3"/>
    </vehicle>
    <vehicle id="617" depart="431.90">
        <route edges="5:1 1:0 0:2 2:8"/>
    </vehicle>
    <vehicle id="620" depart="434.00">
        <route edges="7:3 3:1 1:0"/>
    </vehicle>
    <vehicle id="622" depart="435.40">
        <route edges="6:5 5:1 1:0 0:2 2:8"/>
    </vehicle>
    <vehicle id="623" depart="436.10">
        <route edges="6:5 5:1 1:3 3:7"/>
    </vehicle>
    <vehicle id="625" depart="437.50">
        <route edges="0:1 1:3 3:7"/>
    </vehicle>
    <vehicle id="627" depart="438.90">
        <route edges="8:2 2:0"/>
    </vehicle>
    <vehicle id="628" depart="439.60">
        <route edges="6:5 5:1 1:0 0:9 9:10"/>
    </vehicle>
    <vehicle id="633" depart="443.10">
        <route edges="1:0 0:2 2:8"/>
    </vehicle>
    <vehicle id="634" depart="443.80">