<?xml version="1.0" encoding="UTF-8"?>

<!-- generated on Thu Feb 13 14:16:12 2014 by SUMO duarouter Version 0.18.0
<?xml version="1.0" encoding="UTF-8"?>

<configuration xmlns:xsi="http://www.w3.org/2001/XMLSchema-instance" xsi:noNamespaceSchemaLocation="http://sumo.sf.net/xsd/duarouterConfiguration.xsd">

    <input>
        <net-file value="twinT.net.xml"/>
        <trip-files value="experimentos/twinT.p0.7.5.trips.xml"/>
    </input>

    <output>
        <output-file value="experimentos/twinT.p0.7.5.rou.xml"/>
    </output>

    <processing>
        <ignore-errors value="true"/>
    </processing>

    <random_number>
        <random value="true"/>
    </random_number>

</configuration>
-->

<routes xmlns:xsi="http://www.w3.org/2001/XMLSchema-instance" xsi:noNamespaceSchemaLocation="http://sumo.sf.net/xsd/routes_file.xsd">
    <vehicle id="0" depart="0.00">
        <route edges="8:2 2:0 0:1 1:5"/>
    </vehicle>
    <vehicle id="2" depart="1.40">
        <route edges="3:1 1:0 0:2 2:8"/>
    </vehicle>
    <vehicle id="4" depart="2.80">
        <route edges="3:1 1:0 0:2 2:8"/>
    </vehicle>
    <vehicle id="5" depart="3.50">
        <route edges="10:9 9:0 0:1 1:5 5:6"/>
    </vehicle>
    <vehicle id="6" depart="4.20">
        <route edges="1:0 0:9"/>
    </vehicle>
    <vehicle id="7" depart="4.90">
        <route edges="7:3 3:1 1:5 5:6"/>
    </vehicle>
    <vehicle id="10" depart="7.00">
        <route edges="8:2 2:0 0:1 1:3 3:7"/>
    </vehicle>
    <vehicle id="11" depart="7.70">
        <route edges="8:2 2:0 0:1 1:5 5:6"/>
    </vehicle>
    <vehicle id="13" depart="9.10">
        <route edges="8:2 2:0 0:1 1:5"/>
    </vehicle>
    <vehicle id="14" depart="9.80">
        <route edges="0:1 1:3 3:7"/>
    </vehicle>
    <vehicle id="17" depart="11.90">
        <route edges="0:2 2:8"/>
    </vehicle>
    <vehicle id="20" depart="14.00">
        <route edges="7:3 3:1 1:0 0:2"/>
    </vehicle>
    <vehicle id="21" depart="14.70">
        <route edges="0:2 2:8"/>
    </vehicle>
    <vehicle id="22" depart="15.40">
        <route edges="0:1 1:3"/>
    </vehicle>
    <vehicle id="24" depart="16.80">
        <route edges="8:2 2:0 0:9"/>
    </vehicle>
    <vehicle id="25" depart="17.50">
        <route edges="3:1 1:5"/>
    </vehicle>
    <vehicle id="26" depart="18.20">
        <route edges="3:1 1:0 0:2"/>
    </vehicle>
    <vehicle id="30" depart="21.00">
        <route edges="1:5 5:6"/>
    </vehicle>
    <vehicle id="34" depart="23.80">
        <route edges="6:5 5:1 1:0 0:9 9:10"/>
    </vehicle>
    <vehicle id="37" depart="25.90">
        <route edges="5:1 1:3"/>
    </vehicle>
    <vehicle id="38" depart="26.60">
        <route edges="7:3 3:1"/>
    </vehicle>
    <vehicle id="39" depart="27.30">
        <route edges="10:9 9:0"/>
    </vehicle>
    <vehicle id="42" depart="29.40">
        <route edges="7:3 3:1 1:0 0:2 2:8"/>
    </vehicle>
    <vehicle id="44" depart="30.80">
        <route edges="3:1"/>
    </vehicle>
    <vehicle id="45" depart="31.50">
        <route edges="6:5 5:1 1:0 0:2 2:8"/>
    </vehicle>
    <vehicle id="46" depart="32.20">
        <route edges="7:3 3:1 1:0 0:2 2:8"/>
    </vehicle>
    <vehicle id="47" depart="32.90">
        <route edges="2:0 0:1 1:3"/>
    </vehicle>
    <vehicle id="48" depart="33.60">
        <route edges="3:1 1:0"/>
    </vehicle>
    <vehicle id="50" depart="35.00">
        <route edges="1:3 3:7"/>
    </vehicle>
    <vehicle id="51" depart="35.70">
        <route edges="8:2 2:0 0:1 1:5 5:6"/>
    </vehicle>
    <vehicle id="52" depart="36.40">
        <route edges="1:3"/>
    </vehicle>
    <vehicle id="54" depart="37.80">
        <route edges="10:9 9:0 0:2"/>
    </vehicle>
    <vehicle id="56" depart="39.20">
        <route edges="7:3 3:1 1:5 5:6"/>
    </vehicle>
    <vehicle id="60" depart="42.00">
        <route edges="8:2 2:0 0:9"/>
    </vehicle>
    <vehicle id="67" depart="46.90">
        <route edges="10:9 9:0 0:1 1:3 3:7"/>
    </vehicle>
    <vehicle id="68" depart="47.60">
        <route edges="5:1 1:0 0:2 2:8"/>
    </vehicle>
    <vehicle id="70" depart="49.00">
        <route edges="0:2 2:8"/>
    </vehicle>
    <vehicle id="72" depart="50.40">
        <route edges="3:1 1:0 0:2 2:8"/>
    </vehicle>
    <vehicle id="74" depart="51.80">
        <route edges="7:3 3:1 1:0 0:2 2:8"/>
    </vehicle>
    <vehicle id="77" depart="53.90">
        <route edges="10:9 9:0 0:1 1:3"/>
    </vehicle>
    <vehicle id="78" depart="54.60">
        <route edges="0:1 1:3 3:7"/>
    </vehicle>
    <vehicle id="81" depart="56.70">
        <route edges="1:3 3:7"/>
    </vehicle>
    <vehicle id="82" depart="57.40">
        <route edges="6:5 5:1 1:3 3:7"/>
    </vehicle>
    <vehicle id="84" depart="58.80">
        <route edges="6:5 5:1 1:3 3:7"/>
    </vehicle>
    <vehicle id="85" depart="59.50">
        <route edges="7:3 3:1 1:0 0:9"/>
    </vehicle>
    <vehicle id="88" depart="61.60">
        <route edges="3:1"/>
    </vehicle>
    <vehicle id="89" depart="62.30">
        <route edges="6:5 5:1 1:3 3:7"/>
    </vehicle>
    <vehicle id="90" depart="63.00">
        <route edges="8:2 2:0 0:1 1:3 3:7"/>
    </vehicle>
    <vehicle id="91" depart="63.70">
        <route edges="7:3 3:1 1:5 5:6"/>
    </vehicle>
    <vehicle id="93" depart="65.10">
        <route edges="8:2 2:0 0:1 1:3 3:7"/>
    </vehicle>
    <vehicle id="94" depart="65.80">
        <route edges="7:3 3:1 1:5"/>
    </vehicle>
    <vehicle id="95" depart="66.50">
        <route edges="8:2 2:0"/>
    </vehicle>
    <vehicle id="96" depart="67.20">
        <route edges="3:1 1:0 0:9 9:10"/>
    </vehicle>
    <vehicle id="97" depart="67.90">
        <route edges="3:1 1:0 0:9 9:10"/>
    </vehicle>
    <vehicle id="98" depart="68.60">
        <route edges="5:1 1:0 0:2 2:8"/>
    </vehicle>
    <vehicle id="99" depart="69.30">
        <route edges="10:9 9:0 0:2 2:8"/>
    </vehicle>
    <vehicle id="100" depart="70.00">
        <route edges="8:2 2:0 0:1 1:3 3:7"/>
    </vehicle>
    <vehicle id="101" depart="70.70">
        <route edges="7:3 3:1 1:5 5:6"/>
    </vehicle>
    <vehicle id="102" depart="71.40">
        <route edges="6:5 5:1 1:3 3:7"/>
    </vehicle>
    <vehicle id="104" depart="72.80">
        <route edges="9:0 0:1 1:3 3:7"/>
    </vehicle>
    <vehicle id="106" depart="74.20">
        <route edges="2:0 0:1 1:3 3:7"/>
    </vehicle>
    <vehicle id="109" depart="76.30">
        <route edges="7:3 3:1 1:5"/>
    </vehicle>
    <vehicle id="110" depart="77.00">
        <route edges="3:1 1:0 0:2 2:8"/>
    </vehicle>
    <vehicle id="111" depart="77.70">
        <route edges="7:3 3:1 1:0 0:2"/>
    </vehicle>
    <vehicle id="113" depart="79.10">
        <route edges="3:1 1:0 0:9 9:10"/>
    </vehicle>
    <vehicle id="116" depart="81.20">
        <route edges="7:3 3:1 1:0 0:2 2:8"/>
    </vehicle>
    <vehicle id="121" depart="84.70">
        <route edges="7:3 3:1 1:5 5:6"/>
    </vehicle>
    <vehicle id="123" depart="86.10">
        <route edges="8:2 2:0 0:1 1:3"/>
    </vehicle>
    <vehicle id="127" depart="88.90">
        <route edges="0:2 2:8"/>
    </vehicle>
    <vehicle id="134" depart="93.80">
        <route edges="8:2 2:0 0:9 9:10"/>
    </vehicle>
    <vehicle id="135" depart="94.50">
        <route edges="3:1 1:0 0:2 2:8"/>
    </vehicle>
    <vehicle id="138" depart="96.60">
        <route edges="10:9 9:0"/>
    </vehicle>
    <vehicle id="140" depart="98.00">
        <route edges="8:2 2:0 0:9 9:10"/>
    </vehicle>
    <vehicle id="144" depart="100.80">
        <route edges="7:3 3:1 1:0 0:2 2:8"/>
    </vehicle>
    <vehicle id="145" depart="101.50">
        <route edges="5:1 1:3 3:7"/>
    </vehicle>
    <vehicle id="148" depart="103.60">
        <route edges="3:1 1:5 5:6"/>
    </vehicle>
    <vehicle id="149" depart="104.30">
        <route edges="7:3 3:1 1:0 0:2"/>
    </vehicle>
    <vehicle id="151" depart="105.70">
        <route edges="7:3 3:1"/>
    </vehicle>
    <vehicle id="153" depart="107.10">
        <route edges="1:0 0:2 2:8"/>
    </vehicle>
    <vehicle id="154" depart="107.80">
        <route edges="2:0 0:1 1:5 5:6"/>
    </vehicle>
    <vehicle id="157" depart="109.90">
        <route edges="3:1 1:0 0:9 9:10"/>
    </vehicle>
    <vehicle id="158" depart="110.60">
        <route edges="2:0 0:1 1:3"/>
    </vehicle>
    <vehicle id="160" depart="112.00">
        <route edges="6:5 5:1 1:3 3:7"/>
    </vehicle>
    <vehicle id="162" depart="113.40">
        <route edges="1:0 0:9 9:10"/>
    </vehicle>
    <vehicle id="163" depart="114.10">
        <route edges="6:5 5:1 1:3 3:7"/>
    </vehicle>
    <vehicle id="165" depart="115.50">
        <route edges="8:2 2:0 0:9"/>
    </vehicle>
    <vehicle id="167" depart="116.90">
        <route edges="1:3"/>
    </vehicle>
    <vehicle id="168" depart="117.60">
        <route edges="10:9 9:0 0:2"/>
    </vehicle>
    <vehicle id="171" depart="119.70">
        <route edges="10:9 9:0 0:2 2:8"/>
    </vehicle>
    <vehicle id="172" depart="120.40">
        <route edges="5:1 1:0"/>
    </vehicle>
    <vehicle id="173" depart="121.10">
        <route edges="10:9 9:0 0:1 1:3 3:7"/>
    </vehicle>
    <vehicle id="176" depart="123.20">
        <route edges="8:2 2:0"/>
    </vehicle>
    <vehicle id="179" depart="125.30">
        <route edges="8:2 2:0 0:1 1:3"/>
    </vehicle>
    <vehicle id="180" depart="126.00">
        <route edges="0:2 2:8"/>
    </vehicle>
    <vehicle id="187" depart="130.90">
        <route edges="0:1 1:5"/>
    </vehicle>
    <vehicle id="188" depart="131.60">
        <route edges="9:0 0:1 1:5"/>
    </vehicle>
    <vehicle id="189" depart="132.30">
        <route edges="0:1 1:3"/>
    </vehicle>
    <vehicle id="192" depart="134.40">
        <route edges="7:3 3:1"/>
    </vehicle>
    <vehicle id="195" depart="136.50">
        <route edges="8:2 2:0 0:1 1:3 3:7"/>
    </vehicle>
    <vehicle id="197" depart="137.90">
        <route edges="2:0 0:1"/>
    </vehicle>
    <vehicle id="204" depart="142.80">
        <route edges="6:5 5:1"/>
    </vehicle>
    <vehicle id="209" depart="146.30">
        <route edges="3:1 1:0 0:2 2:8"/>
    </vehicle>
    <vehicle id="210" depart="147.00">
        <route edges="6:5 5:1 1:0 0:2"/>
    </vehicle>
    <vehicle id="212" depart="148.40">
        <route edges="3:1 1:0 0:2 2:8"/>
    </vehicle>
    <vehicle id="220" depart="154.00">
        <route edges="8:2 2:0 0:1 1:5"/>
    </vehicle>
    <vehicle id="221" depart="154.70">
        <route edges="2:0 0:1 1:3 3:7"/>
    </vehicle>
    <vehicle id="223" depart="156.10">
        <route edges="7:3 3:1 1:0"/>
    </vehicle>
    <vehicle id="224" depart="156.80">
        <route edges="8:2 2:0 0:1 1:3 3:7"/>
    </vehicle>
    <vehicle id="227" depart="158.90">
        <route edges="2:0 0:1 1:3 3:7"/>
    </vehicle>
    <vehicle id="228" depart="159.60">
        <route edges="8:2 2:0 0:1 1:3 3:7"/>
    </vehicle>
    <vehicle id="229" depart="160.30">
        <route edges="6:5 5:1 1:3"/>
    </vehicle>
    <vehicle id="231" depart="161.70">
        <route edges="3:1 1:0 0:9 9:10"/>
    </vehicle>
    <vehicle id="232" depart="162.40">
        <route edges="9:0 0:1 1:3 3:7"/>
    </vehicle>
    <vehicle id="233" depart="163.10">
        <route edges="5:1 1:3 3:7"/>
    </vehicle>
    <vehicle id="237" depart="165.90">
        <route edges="8:2 2:0 0:9 9:10"/>
    </vehicle>
    <vehicle id="238" depart="166.60">
        <route edges="7:3 3:1 1:5 5:6"/>
    </vehicle>
    <vehicle id="239" depart="167.30">
        <route edges="0:1 1:3 3:7"/>
    </vehicle>
    <vehicle id="241" depart="168.70">
        <route edges="8:2 2:0 0:1 1:3 3:7"/>
    </vehicle>
    <vehicle id="242" depart="169.40">
        <route edges="7:3 3:1 1:0 0:2 2:8"/>
    </vehicle>
    <vehicle id="247" depart="172.90">
        <route edges="0:9"/>
    </vehicle>
    <vehicle id="251" depart="175.70">
        <route edges="9:0 0:2"/>
    </vehicle>
    <vehicle id="252" depart="176.40">
        <route edges="5:1 1:0 0:2 2:8"/>
    </vehicle>
    <vehicle id="254" depart="177.80">
        <route edges="2:0"/>
    </vehicle>
    <vehicle id="255" depart="178.50">
        <route edges="8:2 2:0 0:1 1:3 3:7"/>
    </vehicle>
    <vehicle id="257" depart="179.90">
        <route edges="6:5 5:1 1:3 3:7"/>
    </vehicle>
    <vehicle id="258" depart="180.60">
        <route edges="1:0 0:2"/>
    </vehicle>
    <vehicle id="259" depart="181.30">
        <route edges="2:0 0:1 1:3 3:7"/>
    </vehicle>
    <vehicle id="263" depart="184.10">
        <route edges="7:3 3:1 1:0 0:2 2:8"/>
    </vehicle>
    <vehicle id="268" depart="187.60">
        <route edges="6:5 5:1 1:3 3:7"/>
    </vehicle>
    <vehicle id="269" depart="188.30">
        <route edges="8:2 2:0 0:1 1:3 3:7"/>
    </vehicle>
    <vehicle id="270" depart="189.00">
        <route edges="3:1 1:0 0:9"/>
    </vehicle>
    <vehicle id="273" depart="191.10">
        <route edges="0:2 2:8"/>
    </vehicle>
    <vehicle id="275" depart="192.50">
        <route edges="8:2 2:0 0:9"/>
    </vehicle>
    <vehicle id="276" depart="193.20">
        <route edges="7:3 3:1 1:0 0:2"/>
    </vehicle>
    <vehicle id="277" depart="193.90">
        <route edges="0:2 2:8"/>
    </vehicle>
    <vehicle id="278" depart="194.60">
        <route edges="3:1 1:5 5:6"/>
    </vehicle>
    <vehicle id="279" depart="195.30">
        <route edges="1:3 3:7"/>
    </vehicle>
    <vehicle id="289" depart="202.30">
        <route edges="8:2 2:0 0:9 9:10"/>
    </vehicle>
    <vehicle id="290" depart="203.00">
        <route edges="1:3"/>
    </vehicle>
    <vehicle id="291" depart="203.70">
        <route edges="7:3 3:1 1:0 0:9"/>
    </vehicle>
    <vehicle id="292" depart="204.40">
        <route edges="0:1 1:3 3:7"/>
    </vehicle>
    <vehicle id="294" depart="205.80">
        <route edges="1:5 5:6"/>
    </vehicle>
    <vehicle id="299" depart="209.30">
        <route edges="9:0 0:2 2:8"/>
    </vehicle>
    <vehicle id="300" depart="210.00">
        <route edges="10:9 9:0 0:1 1:5 5:6"/>
    </vehicle>
    <vehicle id="301" depart="210.70">
        <route edges="9:0 0:1 1:3 3:7"/>
    </vehicle>
    <vehicle id="302" depart="211.40">
        <route edges="0:2"/>
    </vehicle>
    <vehicle id="303" depart="212.10">
        <route edges="9:0 0:1 1:3 3:7"/>
    </vehicle>
    <vehicle id="308" depart="215.60">
        <route edges="0:1 1:5"/>
    </vehicle>
    <vehicle id="309" depart="216.30">
        <route edges="5:1 1:0 0:2 2:8"/>
    </vehicle>
    <vehicle id="311" depart="217.70">
        <route edges="6:5 5:1 1:3 3:7"/>
    </vehicle>
    <vehicle id="316" depart="221.20">
        <route edges="7:3 3:1 1:0 0:2 2:8"/>
    </vehicle>
    <vehicle id="322" depart="225.40">
        <route edges="0:1 1:3 3:7"/>
    </vehicle>
    <vehicle id="324" depart="226.80">
        <route edges="5:1 1:0 0:9 9:10"/>
    </vehicle>
    <vehicle id="327" depart="228.90">
        <route edges="3:1 1:0 0:2 2:8"/>
    </vehicle>
    <vehicle id="329" depart="230.30">
        <route edges="7:3 3:1 1:0 0:2 2:8"/>
    </vehicle>
    <vehicle id="330" depart="231.00">
        <route edges="5:1 1:3 3:7"/>
    </vehicle>
    <vehicle id="331" depart="231.70">
        <route edges="9:0"/>
    </vehicle>
    <vehicle id="336" depart="235.20">
        <route edges="8:2 2:0 0:9 9:10"/>
    </vehicle>
    <vehicle id="343" depart="240.10">
        <route edges="6:5 5:1 1:3 3:7"/>
    </vehicle>
    <vehicle id="345" depart="241.50">
        <route edges="3:1 1:0 0:2"/>
    </vehicle>
    <vehicle id="346" depart="242.20">
        <route edges="1:3 3:7"/>
    </vehicle>
    <vehicle id="348" depart="243.60">
        <route edges="0:2 2:8"/>
    </vehicle>
    <vehicle id="349" depart="244.30">
        <route edges="8:2 2:0 0:9"/>
    </vehicle>
    <vehicle id="350" depart="245.00">
        <route edges="5:1 1:3"/>
    </vehicle>
    <vehicle id="352" depart="246.40">
        <route edges="6:5 5:1 1:0 0:2 2:8"/>
    </vehicle>
    <vehicle id="353" depart="247.10">
        <route edges="8:2 2:0 0:1 1:5 5:6"/>
    </vehicle>
    <vehicle id="354" depart="247.80">
        <route edges="8:2 2:0 0:1 1:3"/>
    </vehicle>
    <vehicle id="358" depart="250.60">
        <route edges="2:0 0:9 9:10"/>
    </vehicle>
    <vehicle id="361" depart="252.70">
        <route edges="6:5 5:1 1:0 0:2 2:8"/>
    </vehicle>
    <vehicle id="363" depart="254.10">
        <route edges="10:9 9:0 0:2 2:8"/>
    </vehicle>
    <vehicle id="369" depart="258.30">
        <route edges="6:5 5:1 1:3"/>
    </vehicle>
    <vehicle id="372" depart="260.40">
        <route edges="7:3 3:1 1:0"/>
    </vehicle>
    <vehicle id="374" depart="261.80">
        <route edges="0:1 1:5 5:6"/>
    </vehicle>
    <vehicle id="382" depart="267.40">
        <route edges="2:0 0:1 1:3 3:7"/>
    </vehicle>
    <vehicle id="384" depart="268.80">
        <route edges="0:1 1:3 3:7"/>
    </vehicle>
    <vehicle id="386" depart="270.20">
        <route edges="0:9 9:10"/>
    </vehicle>
    <vehicle id="389" depart="272.30">
        <route edges="10:9 9:0 0:1 1:3 3:7"/>
    </vehicle>
    <vehicle id="392" depart="274.40">
        <route edges="6:5 5:1 1:3 3:7"/>
    </vehicle>
    <vehicle id="393" depart="275.10">
        <route edges="10:9 9:0 0:1 1:3"/>
    </vehicle>
    <vehicle id="394" depart="275.80">
        <route edges="1:3"/>
    </vehicle>
    <vehicle id="396" depart="277.20">
        <route edges="6:5 5:1"/>
    </vehicle>
    <vehicle id="401" depart="280.70">
        <route edges="8:2 2:0"/>
    </vehicle>
    <vehicle id="404" depart="282.80">
        <route edges="7:3 3:1 1:0 0:9 9:10"/>
    </vehicle>
    <vehicle id="406" depart="284.20">
        <route edges="9:0 0:1 1:5 5:6"/>
    </vehicle>
    <vehicle id="409" depart="286.30">
        <route edges="10:9 9:0 0:1 1:5"/>
    </vehicle>
    <vehicle id="414" depart="289.80">
        <route edges="8:2 2:0 0:1 1:5"/>
    </vehicle>
    <vehicle id="415" depart="290.50">
        <route edges="3:1 1:0 0:2"/>
    </vehicle>
    <vehicle id="419" depart="293.30">
        <route edges="0:2 2:8"/>
    </vehicle>
    <vehicle id="423" depart="296.10">
        <route edges="6:5 5:1 1:3 3:7"/>
    </vehicle>
    <vehicle id="425" depart="297.50">
        <route edges="8:2 2:0 0:1 1:3 3:7"/>
    </vehicle>
    <vehicle id="427" depart="298.90">
        <route edges="7:3 3:1 1:0 0:2 2:8"/>
    </vehicle>
    <vehicle id="429" depart="300.30">
        <route edges="1:3 3:7"/>
    </vehicle>
    <vehicle id="430" depart="301.00">
        <route edges="1:3 3:7"/>
    </vehicle>
    <vehicle id="431" depart="301.70">
        <route edges="6:5 5:1 1:0 0:2 2:8"/>
    </vehicle>
    <vehicle id="432" depart="302.40">
        <route edges="8:2 2:0 0:1"/>
    </vehicle>
    <vehicle id="434" depart="303.80">
        <route edges="8:2 2:0 0:1 1:3 3:7"/>
    </vehicle>
    <vehicle id="436" depart="305.20">
        <route edges="8:2 2:0 0:9"/>
    </vehicle>
    <vehicle id="437" depart="305.90">
        <route edges="7:3 3:1 1:5 5:6"/>
    </vehicle>
    <vehicle id="438" depart="306.60">
        <route edges="7:3 3:1 1:0 0:2 2:8"/>
    </vehicle>
    <vehicle id="439" depart="307.30">
        <route edges="1:3"/>
    </vehicle>
    <vehicle id="441" depart="308.70">
        <route edges="9:0 0:2"/>
    </vehicle>
    <vehicle id="443" depart="310.10">
        <route edges="8:2 2:0 0:1 1:3 3:7"/>
    </vehicle>
    <vehicle id="445" depart="311.50">
        <route edges="8:2 2:0 0:1"/>
    </vehicle>
    <vehicle id="446" depart="312.20">
        <route edges="0:1 1:3 3:7"/>
    </vehicle>
    <vehicle id="451" depart="315.70">
        <route edges="2:0"/>
    </vehicle>
    <vehicle id="454" depart="317.80">
        <route edges="7:3 3:1 1:0 0:2 2:8"/>
    </vehicle>
    <vehicle id="459" depart="321.30">
        <route edges="7:3 3:1 1:0 0:2 2:8"/>
    </vehicle>
    <vehicle id="464" depart="324.80">
        <route edges="6:5 5:1 1:0 0:2 2:8"/>
    </vehicle>
    <vehicle id="467" depart="326.90">
        <route edges="6:5 5:1"/>
    </vehicle>
    <vehicle id="468" depart="327.60">
        <route edges="10:9 9:0 0:1 1:3 3:7"/>
    </vehicle>
    <vehicle id="469" depart="328.30">
        <route edges="6:5 5:1 1:0 0:2"/>
    </vehicle>
    <vehicle id="474" depart="331.80">
        <route edges="3:1 1:0 0:9 9:10"/>
    </vehicle>
    <vehicle id="478" depart="334.60">
        <route edges="7:3 3:1 1:0 0:9 9:10"/>
    </vehicle>
    <vehicle id="479" depart="335.30">
        <route edges="5:1 1:0 0:9 9:10"/>
    </vehicle>
    <vehicle id="480" depart="336.00">
        <route edges="6:5 5:1 1:0 0:2 2:8"/>
    </vehicle>
    <vehicle id="482" depart="337.40">
        <route edges="1:5"/>
    </vehicle>
    <vehicle id="483" depart="338.10">
        <route edges="8:2 2:0 0:9"/>
    </vehicle>
    <vehicle id="488" depart="341.60">
        <route edges="8:2 2:0 0:1 1:5"/>
    </vehicle>
    <vehicle id="496" depart="347.20">
        <route edges="6:5 5:1 1:0 0:9"/>
    </vehicle>
    <vehicle id="497" depart="347.90">
        <route edges="8:2 2:0 0:1"/>
    </vehicle>
    <vehicle id="500" depart="350.00">
        <route edges="7:3 3:1 1:5"/>
    </vehicle>
    <vehicle id="501" depart="350.70">
        <route edges="2:0"/>
    </vehicle>
    <vehicle id="502" depart="351.40">
        <route edges="7:3 3:1 1:0 0:2 2:8"/>
    </vehicle>
    <vehicle id="503" depart="352.10">
        <route edges="8:2 2:0 0:9 9:10"/>
    </vehicle>
    <vehicle id="504" depart="352.80">
        <route edges="7:3 3:1 1:0"/>
    </vehicle>
    <vehicle id="505" depart="353.50">
        <route edges="1:0 0:2"/>
    </vehicle>
    <vehicle id="508" depart="355.60">
        <route edges="0:2 2:8"/>
    </vehicle>
    <vehicle id="516" depart="361.20">
        <route edges="0:2 2:8"/>
    </vehicle>
    <vehicle id="517" depart="361.90">
        <route edges="0:2"/>
    </vehicle>
    <vehicle id="518" depart="362.60">
        <route edges="8:2 2:0"/>
    </vehicle>
    <vehicle id="521" depart="364.70">
        <route edges="1:0"/>
    </vehicle>
    <vehicle id="522" depart="365.40">
        <route edges="8:2 2:0 0:9 9:10"/>
    </vehicle>
    <vehicle id="528" depart="369.60">
        <route edges="6:5 5:1 1:0 0:9"/>
    </vehicle>
    <vehicle id="530" depart="371.00">
        <route edges="7:3 3:1 1:0"/>
    </vehicle>
    <vehicle id="531" depart="371.70">
        <route edges="8:2 2:0 0:1 1:5 5:6"/>
    </vehicle>
    <vehicle id="534" depart="373.80">
        <route edges="8:2 2:0 0:1 1:3 3:7"/>
    </vehicle>
    <vehicle id="535" depart="374.50">
        <route edges="8:2 2:0 0:1"/>
    </vehicle>
    <vehicle id="536" depart="375.20">
        <route edges="0:1 1:3 3:7"/>
    </vehicle>
    <vehicle id="541" depart="378.70">
        <route edges="8:2 2:0 0:9 9:10"/>
    </vehicle>
    <vehicle id="544" depart="380.80">
        <route edges="8:2 2:0 0:1 1:5 5:6"/>
    </vehicle>
    <vehicle id="545" depart="381.50">
        <route edges="0:1 1:3"/>
    </vehicle>
    <vehicle id="547" depart="382.90">
        <route edges="3:1 1:0 0:2 2:8"/>
    </vehicle>
    <vehicle id="556" depart="389.20">
        <route edges="0:2 2:8"/>
    </vehicle>
    <vehicle id="558" depart="390.60">
        <route edges="0:1 1:3"/>
    </vehicle>
    <vehicle id="560" depart="392.00">
        <route edges="3:1 1:0 0:2"/>
    </vehicle>
    <vehicle id="561" depart="392.70">
        <route edges="3:1 1:0 0:2 2:8"/>
    </vehicle>
    <vehicle id="569" depart="398.30">
        <route edges="10:9 9:0 0:2 2:8"/>
    </vehicle>
    <vehicle id="571" depart="399.70">
        <route edges="6:5 5:1 1:3 3:7"/>
    </vehicle>
    <vehicle id="572" depart="400.40">
        <route edges="2:0"/>
    </vehicle>
    <vehicle id="573" depart="401.10">
        <route edges="6:5 5:1 1:3"/>
    </vehicle>
    <vehicle id="580" depart="406.00">
        <route edges="1:5"/>
    </vehicle>
    <vehicle id="581" depart="406.70">
        <route edges="8:2 2:0 0:9 9:10"/>
    </vehicle>
    <vehicle id="582" depart="407.40">
        <route edges="10:9 9:0 0:1 1:3 3:7"/>
    </vehicle>
    <vehicle id="584" depart="408.80">
        <route edges="1:3 3:7"/>
    </vehicle>
    <vehicle id="586" depart="410.20">
        <route edges="10:9 9:0 0:1 1:3 3:7"/>
    </vehicle>
    <vehicle id="590" depart="413.00">
        <route edges="10:9 9:0 0:1 1:5"/>
    </vehicle>
    <vehicle id="592" depart="414.40">
        <route edges="2:0 0:1"/>
    </vehicle>
    <vehicle id="593" depart="415.10">
        <route edges="8:2 2:0 0:1 1:3 3:7"/>
    </vehicle>
    <vehicle id="595" depart="416.50">
        <route edges="5:1 1:0 0:9 9:10"/>
    </vehicle>
    <vehicle id="597" depart="417.90">
        <route edges="1:5"/>
    </vehicle>
    <vehicle id="598" depart="418.60">
        <route edges="1:3 3:7"/>
    </vehicle>
    <vehicle id="599" depart="419.30">
        <route edges="8:2 2:0 0:1 1:3 3:7"/>
    </vehicle>
    <vehicle id="600" depart="420.00">
        <route edges="0:2 2:8"/>
    </vehicle>
    <vehicle id="606" depart="424.20">
        <route edges="10:9 9:0 0:2 2:8"/>
    </vehicle>
    <vehicle id="607" depart="424.90">
        <route edges="1:5 5:6"/>
    </vehicle>
    <vehicle id="609" depart="426.30">
        <route edges="10:9 9:0 0:1 1:5"/>
    </vehicle>
    <vehicle id="614" depart="429.80">
        <route edges="6:5 5:1 1:3 3:7"/>
    </vehicle>
    <vehicle id="616" depart="431.20">
        <route edges="8:2 2:0 0:1 1:3"/>
    </vehicle>
    <vehicle id="617" depart="431.90">
        <route edges="7:3 3:1 1:5 5:6"/>
    </vehicle>
    <vehicle id="618" depart="432.60">
        <route edges="1:3 3:7"/>
    </vehicle>
    <vehicle id="619" depart="433.30">
        <route edges="1:0 0:2 2:8"/>
    </vehicle>
    <vehicle id="620" depart="434.00">
        <route edges="1:0 0:2"/>
    </vehicle>
    <vehicle id="621" depart="434.70">
        <route edges="8:2 2:0"/>
    </vehicle>
    <vehicle id="623" depart="436.10">
        <route edges="5:1 1:0 0:2 2:8"/>
    </vehicle>
    <vehicle id="625" depart="437.50">
        <route edges="8:2 2:0 0:1 1:3"/>
    </vehicle>
    <vehicle id="628" depart="439.60">
        <route edges="10:9 9:0 0:1 1:5 5:6"/>
    </vehicle>
    <vehicle id="631" depart="441.70">
        <route edges="8:2 2:0 0:1 1:3 3:7"/>
    </vehicle>
    <vehicle id="632" depart="442.40">
        <route edges="8:2 2:0 0:1 1:3"/>
    </vehicle>
    <vehicle id="635" depart="444.50">
        <route edges="7:3 3:1 1:0 0:2"/>
    </vehicle>
    <vehicle id="636" depart="445.20">
        <route edges="3:1"/>
    </vehicle>
    <vehicle id="646" depart="452.20">
        <route edges="8:2 2:0 0:1 1:3 3:7"/>
    </vehicle>
    <vehicle id="648" depart="453.60">
        <route edges="7:3 3:1 1:0 0:9"/>
    </vehicle>
    <vehicle id="649" depart="454.30">
        <route edges="0:1 1:5"/>
    </vehicle>
    <vehicle id="650" depart="455.00">
        <route edges="10:9 9:0 0:2 2:8"/>
    </vehicle>
    <vehicle id="653" depart="457.10">
        <route edges="2:0 0:9"/>
    </vehicle>
    <vehicle id="660" depart="462.00">
        <route edges="2:0"/>
    </vehicle>
    <vehicle id="661" depart="462.70">
        <route edges="9:0 0:1 1:3"/>
    </vehicle>
    <vehicle id="662" depart="463.40">
        <route edges="9:0 0:2"/>
    </vehicle>
    <vehicle id="663" depart="464.10">
        <route edges="8:2 2:0 0:1 1:3"/>
    </vehicle>
    <vehicle id="664" depart="464.80">
        <route edges="8:2 2:0 0:1 1:3 3:7"/>
    </vehicle>
    <vehicle id="665" depart="465.50">
        <route edges="9:0 0:1 1:3 3:7"/>
    </vehicle>
    <vehicle id="666" depart="466.20">
        <route edges="7:3 3:1 1:0 0:9 9:10"/>
    </vehicle>
    <vehicle id="667" depart="466.90">
        <route edges="2:0"/>
    </vehicle>
    <vehicle id="673" depart="471.10">
        <route edges="8:2 2:0"/>
    </vehicle>
    <vehicle id="674" depart="471.80">
        <route edges="2:0 0:1 1:5 5:6"/>
    </vehicle>
    <vehicle id="676" depart="473.20">
        <route edges="8:2 2:0 0:1 1:3 3:7"/>
    </vehicle>
    <vehicle id="677" depart="473.90">
        <route edges="8:2 2:0 0:1 1:3 3:7"/>
    </vehicle>
    <vehicle id="678" depart="474.60">
        <route edges="7:3 3:1 1:0 0:2"/>
    </vehicle>
    <vehicle id="679" depart="475.30">
        <route edges="2:0 0:1 1:3 3:7"/>
    </vehicle>
    <vehicle id="680" depart="476.00">
        <route edges="8:2 2:0 0:9 9:10"/>
    </vehicle>
    <vehicle id="681" depart="476.70">
        <route edges="2:0"/>
    </vehicle>
    <vehicle id="682" depart="477.40">
        <route edges="10:9 9:0 0:2 2:8"/>
    </vehicle>
    <vehicle id="683" depart="478.10">
        <route edges="1:3 3:7"/>
    </vehicle>
    <vehicle id="694" depart="485.80">
        <route edges="8:2 2:0 0:1 1:5 5:6"/>
    </vehicle>
    <vehicle id="695" depart="486.50">
        <route edges="0:1 1:3"/>
    </vehicle>
    <vehicle id="697" depart="487.90">
        <route edges="7:3 3:1 1:0 0:2 2:8"/>
    </vehicle>
    <vehicle id="698" depart="488.60">
        <route edges="2:0 0:1"/>
    </vehicle>
    <vehicle id="700" depart="490.00">
        <route edges="3:1 1:0 0:9 9:10"/>
    </vehicle>
    <vehicle id="703" depart="492.10">
        <route edges="1:3"/>
    </vehicle>
    <vehicle id="704" depart="492.80">
        <route edges="0:9"/>
    </vehicle>
    <vehicle id="706" depart="494.20">
        <route edges="1:0 0:9 9:10"/>
    </vehicle>
    <vehicle id="707" depart="494.90">
        <route edges="3:1"/>
    </vehicle>
    <vehicle id="708" depart="495.60">
        <route edges="3:1 1:0 0:2 2:8"/>
    </vehicle>
    <vehicle id="709" depart="496.30">
        <route edges="6:5 5:1 1:3 3:7"/>
    </vehicle>
    <vehicle id="711" depart="497.70">
        <route edges="6:5 5:1 1:0 0:9"/>
    </vehicle>
    <vehicle id="713" depart="499.10">
        <route edges="2:0 0:1 1:3"/>
    </vehicle>