<?xml version="1.0" encoding="UTF-8"?>

<!-- generated on Thu Feb 13 14:15:10 2014 by SUMO duarouter Version 0.18.0
<?xml version="1.0" encoding="UTF-8"?>

<configuration xmlns:xsi="http://www.w3.org/2001/XMLSchema-instance" xsi:noNamespaceSchemaLocation="http://sumo.sf.net/xsd/duarouterConfiguration.xsd">

    <input>
        <net-file value="twinT.net.xml"/>
        <trip-files value="experimentos/twinT.p0.1.9.trips.xml"/>
    </input>

    <output>
        <output-file value="experimentos/twinT.p0.1.9.rou.xml"/>
    </output>

    <processing>
        <ignore-errors value="true"/>
    </processing>

    <random_number>
        <random value="true"/>
    </random_number>

</configuration>
-->

<routes xmlns:xsi="http://www.w3.org/2001/XMLSchema-instance" xsi:noNamespaceSchemaLocation="http://sumo.sf.net/xsd/routes_file.xsd">
    <vehicle id="0" depart="0.00">
        <route edges="6:5 5:1 1:0 0:2"/>
    </vehicle>
    <vehicle id="3" depart="0.30">
        <route edges="3:1 1:0 0:9"/>
    </vehicle>
    <vehicle id="9" depart="0.90">
        <route edges="10:9 9:0 0:1 1:3"/>
    </vehicle>
    <vehicle id="17" depart="1.70">
        <route edges="1:3 3:7"/>
    </vehicle>
    <vehicle id="20" depart="2.00">
        <route edges="10:9 9:0 0:1 1:3 3:7"/>
    </vehicle>
    <vehicle id="21" depart="2.10">
        <route edges="1:3"/>
    </vehicle>
    <vehicle id="26" depart="2.60">
        <route edges="7:3 3:1 1:0 0:2"/>
    </vehicle>
    <vehicle id="27" depart="2.70">
        <route edges="9:0 0:2 2:8"/>
    </vehicle>
    <vehicle id="28" depart="2.80">
        <route edges="1:0 0:2"/>
    </vehicle>
    <vehicle id="29" depart="2.90">
        <route edges="9:0 0:2 2:8"/>
    </vehicle>
    <vehicle id="31" depart="3.10">
        <route edges="7:3 3:1 1:0 0:2 2:8"/>
    </vehicle>
    <vehicle id="32" depart="3.20">
        <route edges="3:1"/>
    </vehicle>
    <vehicle id="38" depart="3.80">
        <route edges="8:2 2:0 0:9 9:10"/>
    </vehicle>
    <vehicle id="39" depart="3.90">
        <route edges="3:1 1:0 0:2 2:8"/>
    </vehicle>
    <vehicle id="40" depart="4.00">
        <route edges="10:9 9:0 0:2"/>
    </vehicle>
    <vehicle id="42" depart="4.20">
        <route edges="7:3 3:1 1:0 0:2 2:8"/>
    </vehicle>
    <vehicle id="43" depart="4.30">
        <route edges="7:3 3:1 1:5 5:6"/>
    </vehicle>
    <vehicle id="44" depart="4.40">
        <route edges="7:3 3:1"/>
    </vehicle>
    <vehicle id="47" depart="4.70">
        <route edges="7:3 3:1 1:0"/>
    </vehicle>
    <vehicle id="49" depart="4.90">
        <route edges="7:3 3:1 1:5 5:6"/>
    </vehicle>
    <vehicle id="53" depart="5.30">
        <route edges="7:3 3:1 1:0 0:2 2:8"/>
    </vehicle>
    <vehicle id="54" depart="5.40">
        <route edges="2:0 0:1"/>
    </vehicle>
    <vehicle id="57" depart="5.70">
        <route edges="7:3 3:1 1:0 0:2 2:8"/>
    </vehicle>
    <vehicle id="58" depart="5.80">
        <route edges="3:1 1:0 0:2 2:8"/>
    </vehicle>
    <vehicle id="61" depart="6.10">
        <route edges="1:3 3:7"/>
    </vehicle>
    <vehicle id="63" depart="6.30">
        <route edges="2:0 0:1 1:3"/>
    </vehicle>
    <vehicle id="65" depart="6.50">
        <route edges="2:0 0:1"/>
    </vehicle>
    <vehicle id="69" depart="6.90">
        <route edges="0:2 2:8"/>
    </vehicle>
    <vehicle id="72" depart="7.20">
        <route edges="5:1 1:0 0:2 2:8"/>
    </vehicle>
    <vehicle id="74" depart="7.40">
        <route edges="8:2 2:0 0:1 1:3 3:7"/>
    </vehicle>
    <vehicle id="75" depart="7.50">
        <route edges="10:9 9:0 0:1 1:3 3:7"/>
    </vehicle>
    <vehicle id="78" depart="7.80">
        <route edges="6:5 5:1 1:0 0:2"/>
    </vehicle>
    <vehicle id="79" depart="7.90">
        <route edges="0:9 9:10"/>
    </vehicle>
    <vehicle id="80" depart="8.00">
        <route edges="7:3 3:1 1:0 0:9"/>
    </vehicle>
    <vehicle id="81" depart="8.10">
        <route edges="7:3 3:1 1:0"/>
    </vehicle>
    <vehicle id="82" depart="8.20">
        <route edges="9:0 0:2 2:8"/>
    </vehicle>
    <vehicle id="83" depart="8.30">
        <route edges="2:0"/>
    </vehicle>
    <vehicle id="85" depart="8.50">
        <route edges="9:0 0:1 1:3 3:7"/>
    </vehicle>
    <vehicle id="87" depart="8.70">
        <route edges="8:2 2:0 0:9 9:10"/>
    </vehicle>
    <vehicle id="89" depart="8.90">
        <route edges="7:3 3:1"/>
    </vehicle>
    <vehicle id="93" depart="9.30">
        <route edges="7:3 3:1 1:0 0:2"/>
    </vehicle>
    <vehicle id="94" depart="9.40">
        <route edges="5:1 1:0 0:9 9:10"/>
    </vehicle>
    <vehicle id="95" depart="9.50">
        <route edges="9:0 0:1 1:3 3:7"/>
    </vehicle>
    <vehicle id="96" depart="9.60">
        <route edges="6:5 5:1 1:0"/>
    </vehicle>
    <vehicle id="97" depart="9.70">
        <route edges="8:2 2:0 0:9"/>
    </vehicle>
    <vehicle id="99" depart="9.90">
        <route edges="8:2 2:0 0:1 1:3 3:7"/>
    </vehicle>
    <vehicle id="101" depart="10.10">
        <route edges="6:5 5:1 1:0 0:2"/>
    </vehicle>
    <vehicle id="102" depart="10.20">
        <route edges="8:2 2:0 0:1 1:3 3:7"/>
    </vehicle>
    <vehicle id="106" depart="10.60">
        <route edges="10:9 9:0 0:1 1:5"/>
    </vehicle>
    <vehicle id="108" depart="10.80">
        <route edges="7:3 3:1 1:5 5:6"/>
    </vehicle>
    <vehicle id="110" depart="11.00">
        <route edges="10:9 9:0 0:2 2:8"/>
    </vehicle>
    <vehicle id="111" depart="11.10">
        <route edges="10:9 9:0 0:2 2:8"/>
    </vehicle>
    <vehicle id="112" depart="11.20">
        <route edges="7:3 3:1 1:0 0:2 2:8"/>
    </vehicle>
    <vehicle id="113" depart="11.30">
        <route edges="8:2 2:0 0:9 9:10"/>
    </vehicle>
    <vehicle id="115" depart="11.50">
        <route edges="8:2 2:0 0:1 1:3"/>
    </vehicle>
    <vehicle id="118" depart="11.80">
        <route edges="8:2 2:0 0:1 1:3 3:7"/>
    </vehicle>
    <vehicle id="123" depart="12.30">
        <route edges="8:2 2:0 0:1 1:3"/>
    </vehicle>
    <vehicle id="125" depart="12.50">
        <route edges="8:2 2:0 0:1"/>
    </vehicle>
    <vehicle id="126" depart="12.60">
        <route edges="8:2 2:0 0:1 1:3 3:7"/>
    </vehicle>
    <vehicle id="127" depart="12.70">
        <route edges="7:3 3:1 1:0 0:2 2:8"/>
    </vehicle>
    <vehicle id="128" depart="12.80">
        <route edges="10:9 9:0 0:2 2:8"/>
    </vehicle>
    <vehicle id="129" depart="12.90">
        <route edges="6:5 5:1 1:3 3:7"/>
    </vehicle>
    <vehicle id="130" depart="13.00">
        <route edges="7:3 3:1 1:0 0:9"/>
    </vehicle>
    <vehicle id="131" depart="13.10">
        <route edges="7:3 3:1 1:0 0:9"/>
    </vehicle>
    <vehicle id="132" depart="13.20">
        <route edges="8:2 2:0 0:1 1:5 5:6"/>
    </vehicle>
    <vehicle id="135" depart="13.50">
        <route edges="0:2"/>
    </vehicle>
    <vehicle id="136" depart="13.60">
        <route edges="7:3 3:1 1:5 5:6"/>
    </vehicle>
    <vehicle id="138" depart="13.80">
        <route edges="9:0 0:2"/>
    </vehicle>
    <vehicle id="140" depart="14.00">
        <route edges="3:1 1:0 0:2 2:8"/>
    </vehicle>
    <vehicle id="141" depart="14.10">
        <route edges="8:2 2:0 0:1"/>
    </vehicle>
    <vehicle id="142" depart="14.20">
        <route edges="0:1 1:3"/>
    </vehicle>
    <vehicle id="145" depart="14.50">
        <route edges="2:0 0:1 1:3 3:7"/>
    </vehicle>
    <vehicle id="146" depart="14.60">
        <route edges="10:9 9:0 0:1"/>
    </vehicle>
    <vehicle id="148" depart="14.80">
        <route edges="5:1 1:3"/>
    </vehicle>
    <vehicle id="151" depart="15.10">
        <route edges="5:1 1:0 0:9"/>
    </vehicle>
    <vehicle id="153" depart="15.30">
        <route edges="2:0 0:1 1:3 3:7"/>
    </vehicle>
    <vehicle id="154" depart="15.40">
        <route edges="1:3 3:7"/>
    </vehicle>
    <vehicle id="155" depart="15.50">
        <route edges="10:9 9:0 0:2 2:8"/>
    </vehicle>
    <vehicle id="158" depart="15.80">
        <route edges="7:3 3:1 1:0 0:2"/>
    </vehicle>
    <vehicle id="161" depart="16.10">
        <route edges="6:5 5:1 1:0 0:9 9:10"/>
    </vehicle>
    <vehicle id="162" depart="16.20">
        <route edges="9:0 0:1 1:3"/>
    </vehicle>
    <vehicle id="164" depart="16.40">
        <route edges="7:3 3:1 1:0 0:9"/>
    </vehicle>
    <vehicle id="165" depart="16.50">
        <route edges="6:5 5:1 1:0 0:9 9:10"/>
    </vehicle>
    <vehicle id="166" depart="16.60">
        <route edges="8:2 2:0 0:1 1:5"/>
    </vehicle>
    <vehicle id="168" depart="16.80">
        <route edges="3:1 1:0"/>
    </vehicle>
    <vehicle id="169" depart="16.90">
        <route edges="5:1 1:3"/>
    </vehicle>
    <vehicle id="170" depart="17.00">
        <route edges="0:2 2:8"/>
    </vehicle>
    <vehicle id="171" depart="17.10">
        <route edges="3:1 1:0 0:2"/>
    </vehicle>
    <vehicle id="174" depart="17.40">
        <route edges="7:3 3:1 1:0 0:2"/>
    </vehicle>
    <vehicle id="176" depart="17.60">
        <route edges="8:2 2:0 0:9 9:10"/>
    </vehicle>
    <vehicle id="180" depart="18.00">
        <route edges="7:3 3:1 1:0 0:9 9:10"/>
    </vehicle>
    <vehicle id="184" depart="18.40">
        <route edges="7:3 3:1 1:0 0:2"/>
    </vehicle>
    <vehicle id="185" depart="18.50">
        <route edges="10:9 9:0 0:1 1:3"/>
    </vehicle>
    <vehicle id="186" depart="18.60">
        <route edges="0:2 2:8"/>
    </vehicle>
    <vehicle id="187" depart="18.70">
        <route edges="7:3 3:1 1:0 0:2 2:8"/>
    </vehicle>
    <vehicle id="188" depart="18.80">
        <route edges="9:0 0:1 1:5 5:6"/>
    </vehicle>
    <vehicle id="189" depart="18.90">
        <route edges="8:2 2:0 0:1 1:3 3:7"/>
    </vehicle>
    <vehicle id="190" depart="19.00">
        <route edges="7:3 3:1 1:0 0:2 2:8"/>
    </vehicle>
    <vehicle id="192" depart="19.20">
        <route edges="9:0 0:2"/>
    </vehicle>
    <vehicle id="194" depart="19.40">
        <route edges="8:2 2:0"/>
    </vehicle>
    <vehicle id="197" depart="19.70">
        <route edges="1:0"/>
    </vehicle>
    <vehicle id="198" depart="19.80">
        <route edges="1:3 3:7"/>
    </vehicle>
    <vehicle id="200" depart="20.00">
        <route edges="2:0 0:1 1:5"/>
    </vehicle>
    <vehicle id="206" depart="20.60">
        <route edges="8:2 2:0 0:1 1:3 3:7"/>
    </vehicle>
    <vehicle id="209" depart="20.90">
        <route edges="3:1 1:0"/>
    </vehicle>
    <vehicle id="211" depart="21.10">
        <route edges="8:2 2:0 0:1 1:3 3:7"/>
    </vehicle>
    <vehicle id="213" depart="21.30">
        <route edges="6:5 5:1 1:0 0:9 9:10"/>
    </vehicle>
    <vehicle id="214" depart="21.40">
        <route edges="7:3 3:1"/>
    </vehicle>
    <vehicle id="218" depart="21.80">
        <route edges="8:2 2:0 0:1 1:3"/>
    </vehicle>
    <vehicle id="219" depart="21.90">
        <route edges="7:3 3:1 1:0 0:2 2:8"/>
    </vehicle>
    <vehicle id="222" depart="22.20">
        <route edges="6:5 5:1 1:3 3:7"/>
    </vehicle>
    <vehicle id="225" depart="22.50">
        <route edges="8:2 2:0 0:9 9:10"/>
    </vehicle>
    <vehicle id="226" depart="22.60">
        <route edges="1:0 0:9 9:10"/>
    </vehicle>
    <vehicle id="230" depart="23.00">
        <route edges="10:9 9:0 0:1 1:3"/>
    </vehicle>
    <vehicle id="231" depart="23.10">
        <route edges="10:9 9:0 0:1 1:3 3:7"/>
    </vehicle>
    <vehicle id="234" depart="23.40">
        <route edges="10:9 9:0 0:1 1:3"/>
    </vehicle>
    <vehicle id="236" depart="23.60">
        <route edges="0:2 2:8"/>
    </vehicle>
    <vehicle id="237" depart="23.70">
        <route edges="8:2 2:0 0:9"/>
    </vehicle>
    <vehicle id="238" depart="23.80">
        <route edges="1:0 0:2"/>
    </vehicle>
    <vehicle id="239" depart="23.90">
        <route edges="8:2 2:0 0:9"/>
    </vehicle>
    <vehicle id="241" depart="24.10">
        <route edges="6:5 5:1 1:3 3:7"/>
    </vehicle>
    <vehicle id="242" depart="24.20">
        <route edges="7:3 3:1 1:0 0:9 9:10"/>
    </vehicle>
    <vehicle id="246" depart="24.60">
        <route edges="6:5 5:1 1:0 0:2 2:8"/>
    </vehicle>
    <vehicle id="247" depart="24.70">
        <route edges="2:0 0:1 1:3 3:7"/>
    </vehicle>
    <vehicle id="248" depart="24.80">
        <route edges="0:2"/>
    </vehicle>
    <vehicle id="250" depart="25.00">
        <route edges="5:1 1:0 0:2"/>
    </vehicle>
    <vehicle id="251" depart="25.10">
        <route edges="8:2 2:0 0:1"/>
    </vehicle>
    <vehicle id="252" depart="25.20">
        <route edges="8:2 2:0 0:9"/>
    </vehicle>
    <vehicle id="253" depart="25.30">
        <route edges="6:5 5:1 1:0"/>
    </vehicle>
    <vehicle id="255" depart="25.50">
        <route edges="7:3 3:1 1:0 0:2 2:8"/>
    </vehicle>
    <vehicle id="256" depart="25.60">
        <route edges="6:5 5:1 1:0"/>
    </vehicle>
    <vehicle id="258" depart="25.80">
        <route edges="5:1 1:3"/>
    </vehicle>
    <vehicle id="259" depart="25.90">
        <route edges="10:9 9:0 0:1 1:3 3:7"/>
    </vehicle>
    <vehicle id="262" depart="26.20">
        <route edges="3:1 1:0 0:2"/>
    </vehicle>
    <vehicle id="264" depart="26.40">
        <route edges="7:3 3:1 1:0 0:2 2:8"/>
    </vehicle>
    <vehicle id="266" depart="26.60">
        <route edges="7:3 3:1 1:0 0:9 9:10"/>
    </vehicle>
    <vehicle id="268" depart="26.80">
        <route edges="6:5 5:1 1:0"/>
    </vehicle>
    <vehicle id="269" depart="26.90">
        <route edges="8:2 2:0 0:1 1:3 3:7"/>
    </vehicle>
    <vehicle id="271" depart="27.10">
        <route edges="6:5 5:1 1:0 0:9 9:10"/>
    </vehicle>
    <vehicle id="273" depart="27.30">
        <route edges="7:3 3:1 1:0 0:9 9:10"/>
    </vehicle>
    <vehicle id="274" depart="27.40">
        <route edges="8:2 2:0 0:1"/>
    </vehicle>
    <vehicle id="275" depart="27.50">
        <route edges="0:9 9:10"/>
    </vehicle>
    <vehicle id="276" depart="27.60">
        <route edges="6:5 5:1 1:0"/>
    </vehicle>
    <vehicle id="279" depart="27.90">
        <route edges="0:9 9:10"/>
    </vehicle>
    <vehicle id="283" depart="28.30">
        <route edges="3:1 1:0 0:2 2:8"/>
    </vehicle>
    <vehicle id="284" depart="28.40">
        <route edges="3:1 1:5"/>
    </vehicle>
    <vehicle id="286" depart="28.60">
        <route edges="3:1 1:0 0:9 9:10"/>
    </vehicle>
    <vehicle id="287" depart="28.70">
        <route edges="7:3 3:1 1:0 0:2 2:8"/>
    </vehicle>
    <vehicle id="289" depart="28.90">
        <route edges="2:0 0:9"/>
    </vehicle>
    <vehicle id="290" depart="29.00">
        <route edges="7:3 3:1 1:0 0:2 2:8"/>
    </vehicle>
    <vehicle id="291" depart="29.10">
        <route edges="9:0 0:2 2:8"/>
    </vehicle>
    <vehicle id="292" depart="29.20">
        <route edges="8:2 2:0 0:1 1:5 5:6"/>
    </vehicle>
    <vehicle id="293" depart="29.30">
        <route edges="7:3 3:1 1:5 5:6"/>
    </vehicle>
    <vehicle id="294" depart="29.40">
        <route edges="10:9 9:0 0:2 2:8"/>
    </vehicle>
    <vehicle id="298" depart="29.80">
        <route edges="1:0 0:9"/>
    </vehicle>
    <vehicle id="301" depart="30.10">
        <route edges="2:0 0:1 1:3 3:7"/>
    </vehicle>
    <vehicle id="303" depart="30.30">
        <route edges="6:5 5:1 1:0 0:2"/>
    </vehicle>
    <vehicle id="304" depart="30.40">
        <route edges="10:9 9:0 0:2 2:8"/>
    </vehicle>
    <vehicle id="305" depart="30.50">
        <route edges="6:5 5:1 1:0 0:9"/>
    </vehicle>
    <vehicle id="306" depart="30.60">
        <route edges="7:3 3:1"/>
    </vehicle>
    <vehicle id="308" depart="30.80">
        <route edges="3:1"/>
    </vehicle>
    <vehicle id="310" depart="31.00">
        <route edges="8:2 2:0 0:1"/>
    </vehicle>
    <vehicle id="315" depart="31.50">
        <route edges="7:3 3:1 1:0 0:2 2:8"/>
    </vehicle>
    <vehicle id="319" depart="31.90">
        <route edges="10:9 9:0 0:2"/>
    </vehicle>
    <vehicle id="322" depart="32.20">
        <route edges="5:1 1:0 0:2 2:8"/>
    </vehicle>
    <vehicle id="323" depart="32.30">
        <route edges="0:2"/>
    </vehicle>
    <vehicle id="325" depart="32.50">
        <route edges="8:2 2:0 0:1 1:3"/>
    </vehicle>
    <vehicle id="326" depart="32.60">
        <route edges="1:3 3:7"/>
    </vehicle>
    <vehicle id="328" depart="32.80">
        <route edges="10:9 9:0 0:2 2:8"/>
    </vehicle>
    <vehicle id="329" depart="32.90">
        <route edges="0:2 2:8"/>
    </vehicle>
    <vehicle id="330" depart="33.00">
        <route edges="7:3 3:1"/>
    </vehicle>
    <vehicle id="332" depart="33.20">
        <route edges="10:9 9:0 0:2"/>
    </vehicle>
    <vehicle id="333" depart="33.30">
        <route edges="10:9 9:0 0:2 2:8"/>
    </vehicle>
    <vehicle id="334" depart="33.40">
        <route edges="0:2 2:8"/>
    </vehicle>
    <vehicle id="336" depart="33.60">
        <route edges="5:1 1:3 3:7"/>
    </vehicle>
    <vehicle id="340" depart="34.00">
        <route edges="5:1 1:3 3:7"/>
    </vehicle>
    <vehicle id="341" depart="34.10">
        <route edges="1:0 0:2 2:8"/>
    </vehicle>
    <vehicle id="342" depart="34.20">
        <route edges="10:9 9:0 0:1 1:5"/>
    </vehicle>
    <vehicle id="345" depart="34.50">
        <route edges="8:2 2:0 0:9"/>
    </vehicle>
    <vehicle id="347" depart="34.70">
        <route edges="5:1 1:0 0:2"/>
    </vehicle>
    <vehicle id="352" depart="35.20">
        <route edges="7:3 3:1 1:0 0:2 2:8"/>
    </vehicle>
    <vehicle id="355" depart="35.50">
        <route edges="2:0 0:9"/>
    </vehicle>
    <vehicle id="356" depart="35.60">
        <route edges="7:3 3:1 1:0"/>
    </vehicle>
    <vehicle id="358" depart="35.80">
        <route edges="6:5 5:1 1:3"/>
    </vehicle>
    <vehicle id="361" depart="36.10">
        <route edges="10:9 9:0 0:1 1:3 3:7"/>
    </vehicle>
    <vehicle id="362" depart="36.20">
        <route edges="8:2 2:0 0:1 1:3 3:7"/>
    </vehicle>
    <vehicle id="363" depart="36.30">
        <route edges="8:2 2:0 0:1 1:5"/>
    </vehicle>
    <vehicle id="365" depart="36.50">
        <route edges="1:3 3:7"/>
    </vehicle>
    <vehicle id="366" depart="36.60">
        <route edges="0:9"/>
    </vehicle>
    <vehicle id="367" depart="36.70">
        <route edges="7:3 3:1 1:5 5:6"/>
    </vehicle>
    <vehicle id="372" depart="37.20">
        <route edges="7:3 3:1 1:0"/>
    </vehicle>
    <vehicle id="374" depart="37.40">
        <route edges="3:1"/>
    </vehicle>
    <vehicle id="375" depart="37.50">
        <route edges="7:3 3:1 1:0 0:9 9:10"/>
    </vehicle>
    <vehicle id="379" depart="37.90">
        <route edges="2:0 0:1 1:3"/>
    </vehicle>
    <vehicle id="380" depart="38.00">
        <route edges="1:5 5:6"/>
    </vehicle>
    <vehicle id="382" depart="38.20">
        <route edges="9:0 0:1 1:5 5:6"/>
    </vehicle>
    <vehicle id="389" depart="38.90">
        <route edges="7:3 3:1 1:0 0:2 2:8"/>
    </vehicle>
    <vehicle id="391" depart="39.10">
        <route edges="10:9 9:0 0:1 1:5 5:6"/>
    </vehicle>
    <vehicle id="392" depart="39.20">
        <route edges="8:2 2:0 0:1 1:3 3:7"/>
    </vehicle>
    <vehicle id="393" depart="39.30">
        <route edges="8:2 2:0 0:1 1:3"/>
    </vehicle>
    <vehicle id="394" depart="39.40">
        <route edges="8:2 2:0 0:1 1:3 3:7"/>
    </vehicle>
    <vehicle id="395" depart="39.50">
        <route edges="0:1"/>
    </vehicle>
    <vehicle id="396" depart="39.60">
        <route edges="7:3 3:1"/>
    </vehicle>
    <vehicle id="398" depart="39.80">
        <route edges="6:5 5:1 1:0 0:2"/>
    </vehicle>
    <vehicle id="399" depart="39.90">
        <route edges="6:5 5:1 1:0 0:2 2:8"/>
    </vehicle>
    <vehicle id="400" depart="40.00">
        <route edges="7:3 3:1"/>
    </vehicle>
    <vehicle id="404" depart="40.40">
        <route edges="10:9 9:0 0:1 1:5"/>
    </vehicle>
    <vehicle id="405" depart="40.50">
        <route edges="7:3 3:1 1:5 5:6"/>
    </vehicle>
    <vehicle id="408" depart="40.80">
        <route edges="10:9 9:0 0:1 1:3 3:7"/>
    </vehicle>
    <vehicle id="411" depart="41.10">
        <route edges="0:1 1:3 3:7"/>
    </vehicle>
    <vehicle id="412" depart="41.20">
        <route edges="8:2 2:0 0:1 1:3 3:7"/>
    </vehicle>
    <vehicle id="415" depart="41.50">
        <route edges="3:1"/>
    </vehicle>
    <vehicle id="417" depart="41.70">
        <route edges="9:0 0:1 1:3 3:7"/>
    </vehicle>
    <vehicle id="418" depart="41.80">
        <route edges="6:5 5:1 1:0 0:2 2:8"/>
    </vehicle>
    <vehicle id="419" depart="41.90">
        <route edges="7:3 3:1 1:0 0:2"/>
    </vehicle>
    <vehicle id="421" depart="42.10">
        <route edges="7:3 3:1 1:5 5:6"/>
    </vehicle>
    <vehicle id="424" depart="42.40">
        <route edges="10:9 9:0 0:2 2:8"/>
    </vehicle>
    <vehicle id="425" depart="42.50">
        <route edges="8:2 2:0 0:1"/>
    </vehicle>
    <vehicle id="426" depart="42.60">
        <route edges="2:0 0:1 1:3 3:7"/>
    </vehicle>
    <vehicle id="427" depart="42.70">
        <route edges="0:2"/>
    </vehicle>
    <vehicle id="429" depart="42.90">
        <route edges="7:3 3:1"/>
    </vehicle>
    <vehicle id="431" depart="43.10">
        <route edges="7:3 3:1 1:0 0:9"/>
    </vehicle>
    <vehicle id="432" depart="43.20">
        <route edges="1:3"/>
    </vehicle>
    <vehicle id="433" depart="43.30">
        <route edges="6:5 5:1 1:0 0:2"/>
    </vehicle>
    <vehicle id="434" depart="43.40">
        <route edges="7:3 3:1 1:0 0:2 2:8"/>
    </vehicle>
    <vehicle id="440" depart="44.00">
        <route edges="7:3 3:1 1:5 5:6"/>
    </vehicle>
    <vehicle id="442" depart="44.20">
        <route edges="8:2 2:0 0:1 1:3 3:7"/>
    </vehicle>
    <vehicle id="443" depart="44.30">
        <route edges="3:1 1:5"/>
    </vehicle>
    <vehicle id="444" depart="44.40">
        <route edges="6:5 5:1 1:3 3:7"/>
    </vehicle>
    <vehicle id="445" depart="44.50">
        <route edges="7:3 3:1 1:0"/>
    </vehicle>
    <vehicle id="446" depart="44.60">
        <route edges="6:5 5:1 1:3"/>
    </vehicle>
    <vehicle id="447" depart="44.70">
        <route edges="6:5 5:1 1:3 3:7"/>
    </vehicle>
    <vehicle id="448" depart="44.80">
        <route edges="3:1 1:0 0:2 2:8"/>
    </vehicle>
    <vehicle id="451" depart="45.10">
        <route edges="8:2 2:0 0:1 1:3"/>
    </vehicle>
    <vehicle id="452" depart="45.20">
        <route edges="5:1 1:3"/>
    </vehicle>
    <vehicle id="453" depart="45.30">
        <route edges="10:9 9:0 0:1 1:3 3:7"/>
    </vehicle>
    <vehicle id="456" depart="45.60">
        <route edges="7:3 3:1 1:0"/>
    </vehicle>
    <vehicle id="458" depart="45.80">
        <route edges="7:3 3:1 1:0 0:2 2:8"/>
    </vehicle>
    <vehicle id="459" depart="45.90">
        <route edges="7:3 3:1 1:5 5:6"/>
    </vehicle>
    <vehicle id="461" depart="46.10">
        <route edges="7:3 3:1 1:0 0:9 9:10"/>
    </vehicle>
    <vehicle id="462" depart="46.20">
        <route edges="10:9 9:0 0:2"/>
    </vehicle>
    <vehicle id="463" depart="46.30">
        <route edges="8:2 2:0 0:1 1:3 3:7"/>
    </vehicle>
    <vehicle id="464" depart="46.40">
        <route edges="7:3 3:1 1:0 0:2 2:8"/>
    </vehicle>
    <vehicle id="466" depart="46.60">
        <route edges="7:3 3:1"/>
    </vehicle>
    <vehicle id="467" depart="46.70">
        <route edges="7:3 3:1 1:0"/>
    </vehicle>
    <vehicle id="472" depart="47.20">
        <route edges="7:3 3:1 1:0 0:9 9:10"/>
    </vehicle>
    <vehicle id="473" depart="47.30">
        <route edges="0:1 1:3 3:7"/>
    </vehicle>
    <vehicle id="474" depart="47.40">
        <route edges="1:3 3:7"/>
    </vehicle>
    <vehicle id="475" depart="47.50">
        <route edges="7:3 3:1 1:0 0:9 9:10"/>
    </vehicle>
    <vehicle id="479" depart="47.90">
        <route edges="5:1 1:0 0:2 2:8"/>
    </vehicle>
    <vehicle id="483" depart="48.30">
        <route edges="0:2 2:8"/>
    </vehicle>
    <vehicle id="484" depart="48.40">
        <route edges="10:9 9:0 0:2 2:8"/>
    </vehicle>
    <vehicle id="485" depart="48.50">
        <route edges="9:0 0:1 1:3"/>
    </vehicle>
    <vehicle id="486" depart="48.60">
        <route edges="7:3 3:1 1:0 0:2 2:8"/>
    </vehicle>
    <vehicle id="491" depart="49.10">
        <route edges="3:1 1:5 5:6"/>
    </vehicle>
    <vehicle id="492" depart="49.20">
        <route edges="8:2 2:0 0:9 9:10"/>
    </vehicle>
    <vehicle id="498" depart="49.80">
        <route edges="10:9 9:0 0:2 2:8"/>
    </vehicle>
    <vehicle id="499" depart="49.90">
        <route edges="1:0 0:2 2:8"/>
    </vehicle>
    <vehicle id="500" depart="50.00">
        <route edges="10:9 9:0"/>
    </vehicle>
    <vehicle id="501" depart="50.10">
        <route edges="2:0 0:9 9:10"/>
    </vehicle>
    <vehicle id="502" depart="50.20">
        <route edges="10:9 9:0 0:2"/>
    </vehicle>
    <vehicle id="505" depart="50.50">
        <route edges="1:0 0:2 2:8"/>
    </vehicle>
    <vehicle id="510" depart="51.00">
        <route edges="8:2 2:0 0:1 1:5"/>
    </vehicle>
    <vehicle id="511" depart="51.10">
        <route edges="8:2 2:0 0:1 1:3 3:7"/>
    </vehicle>
    <vehicle id="512" depart="51.20">
        <route edges="6:5 5:1 1:3 3:7"/>
    </vehicle>
    <vehicle id="513" depart="51.30">
        <route edges="8:2 2:0 0:9 9:10"/>
    </vehicle>
    <vehicle id="514" depart="51.40">
        <route edges="8:2 2:0 0:1 1:3 3:7"/>
    </vehicle>
    <vehicle id="519" depart="51.90">
        <route edges="6:5 5:1 1:3 3:7"/>
    </vehicle>
    <vehicle id="521" depart="52.10">
        <route edges="8:2 2:0"/>
    </vehicle>
    <vehicle id="522" depart="52.20">
        <route edges="0:1 1:3"/>
    </vehicle>
    <vehicle id="523" depart="52.30">
        <route edges="8:2 2:0 0:1 1:3 3:7"/>
    </vehicle>
    <vehicle id="524" depart="52.40">
        <route edges="6:5 5:1 1:0 0:2 2:8"/>
    </vehicle>
    <vehicle id="527" depart="52.70">
        <route edges="8:2 2:0 0:1 1:3 3:7"/>
    </vehicle>
    <vehicle id="529" depart="52.90">
        <route edges="6:5 5:1 1:0 0:2"/>
    </vehicle>
    <vehicle id="531" depart="53.10">
        <route edges="3:1 1:0 0:2 2:8"/>
    </vehicle>
    <vehicle id="533" depart="53.30">
        <route edges="8:2 2:0 0:9 9:10"/>
    </vehicle>
    <vehicle id="536" depart="53.60">
        <route edges="0:2 2:8"/>
    </vehicle>
    <vehicle id="537" depart="53.70">
        <route edges="6:5 5:1 1:3 3:7"/>
    </vehicle>
    <vehicle id="539" depart="53.90">
        <route edges="7:3 3:1 1:5 5:6"/>
    </vehicle>
    <vehicle id="541" depart="54.10">
        <route edges="8:2 2:0 0:9 9:10"/>
    </vehicle>
    <vehicle id="542" depart="54.20">
        <route edges="3:1 1:5"/>
    </vehicle>
    <vehicle id="545" depart="54.50">
        <route edges="10:9 9:0 0:1 1:3"/>
    </vehicle>
    <vehicle id="547" depart="54.70">
        <route edges="7:3 3:1 1:0 0:2 2:8"/>
    </vehicle>
    <vehicle id="549" depart="54.90">
        <route edges="8:2 2:0 0:1 1:5 5:6"/>
    </vehicle>
    <vehicle id="550" depart="55.00">
        <route edges="0:9"/>
    </vehicle>
    <vehicle id="555" depart="55.50">
        <route edges="0:1 1:3 3:7"/>
    </vehicle>
    <vehicle id="556" depart="55.60">
        <route edges="5:1 1:3 3:7"/>
    </vehicle>
    <vehicle id="560" depart="56.00">
        <route edges="7:3 3:1 1:0"/>
    </vehicle>
    <vehicle id="562" depart="56.20">
        <route edges="2:0 0:9 9:10"/>
    </vehicle>
    <vehicle id="564" depart="56.40">
        <route edges="8:2 2:0 0:1 1:5 5:6"/>
    </vehicle>
    <vehicle id="565" depart="56.50">
        <route edges="0:2 2:8"/>
    </vehicle>
    <vehicle id="568" depart="56.80">
        <route edges="7:3 3:1 1:0 0:2 2:8"/>
    </vehicle>
    <vehicle id="569" depart="56.90">
        <route edges="2:0 0:1 1:3"/>
    </vehicle>
    <vehicle id="571" depart="57.10">
        <route edges="7:3 3:1 1:0 0:2 2:8"/>
    </vehicle>
    <vehicle id="573" depart="57.30">
        <route edges="7:3 3:1 1:0"/>
    </vehicle>
    <vehicle id="574" depart="57.40">
        <route edges="8:2 2:0 0:1"/>
    </vehicle>
    <vehicle id="575" depart="57.50">
        <route edges="10:9 9:0 0:1 1:3 3:7"/>
    </vehicle>
    <vehicle id="576" depart="57.60">
        <route edges="8:2 2:0"/>
    </vehicle>
    <vehicle id="577" depart="57.70">
        <route edges="5:1 1:0 0:2"/>
    </vehicle>
    <vehicle id="579" depart="57.90">
        <route edges="5:1 1:0 0:2"/>
    </vehicle>
    <vehicle id="580" depart="58.00">
        <route edges="2:0 0:9"/>
    </vehicle>
    <vehicle id="581" depart="58.10">
        <route edges="6:5 5:1 1:0 0:2"/>
    </vehicle>
    <vehicle id="583" depart="58.30">
        <route edges="7:3 3:1 1:0 0:2 2:8"/>
    </vehicle>
    <vehicle id="585" depart="58.50">
        <route edges="1:0 0:2 2:8"/>
    </vehicle>
    <vehicle id="588" depart="58.80">
        <route edges="8:2 2:0 0:1 1:5 5:6"/>
    </vehicle>
    <vehicle id="592" depart="59.20">
        <route edges="0:2 2:8"/>
    </vehicle>
    <vehicle id="593" depart="59.30">
        <route edges="8:2 2:0 0:1 1:5"/>
    </vehicle>
    <vehicle id="594" depart="59.40">
        <route edges="9:0 0:1 1:3"/>
    </vehicle>
    <vehicle id="595" depart="59.50">
        <route edges="1:0"/>
    </vehicle>
    <vehicle id="597" depart="59.70">
        <route edges="1:3 3:7"/>
    </vehicle>
    <vehicle id="599" depart="59.90">
        <route edges="2:0 0:1 1:5 5:6"/>
    </vehicle>
    <vehicle id="602" depart="60.20">
        <route edges="8:2 2:0 0:1 1:3 3:7"/>
    </vehicle>
    <vehicle id="603" depart="60.30">
        <route edges="8:2 2:0"/>
    </vehicle>
    <vehicle id="607" depart="60.70">
        <route edges="0:2"/>
    </vehicle>
    <vehicle id="608" depart="60.80">
        <route edges="1:0 0:2 2:8"/>
    </vehicle>
    <vehicle id="609" depart="60.90">
        <route edges="7:3 3:1"/>
    </vehicle>
    <vehicle id="611" depart="61.10">
        <route edges="2:0 0:1"/>
    </vehicle>
    <vehicle id="613" depart="61.30">