<?xml version="1.0" encoding="UTF-8"?>

<!-- generated on Thu Feb 13 14:15:21 2014 by SUMO duarouter Version 0.18.0
<?xml version="1.0" encoding="UTF-8"?>

<configuration xmlns:xsi="http://www.w3.org/2001/XMLSchema-instance" xsi:noNamespaceSchemaLocation="http://sumo.sf.net/xsd/duarouterConfiguration.xsd">

    <input>
        <net-file value="twinT.net.xml"/>
        <trip-files value="experimentos/twinT.p0.1.10.trips.xml"/>
    </input>

    <output>
        <output-file value="experimentos/twinT.p0.1.10.rou.xml"/>
    </output>

    <processing>
        <ignore-errors value="true"/>
    </processing>

    <random_number>
        <random value="true"/>
    </random_number>

</configuration>
-->

<routes xmlns:xsi="http://www.w3.org/2001/XMLSchema-instance" xsi:noNamespaceSchemaLocation="http://sumo.sf.net/xsd/routes_file.xsd">
    <vehicle id="4" depart="0.40">
        <route edges="3:1 1:0 0:9 9:10"/>
    </vehicle>
    <vehicle id="6" depart="0.60">
        <route edges="1:3 3:7"/>
    </vehicle>
    <vehicle id="7" depart="0.70">
        <route edges="10:9 9:0 0:2 2:8"/>
    </vehicle>
    <vehicle id="9" depart="0.90">
        <route edges="3:1"/>
    </vehicle>
    <vehicle id="11" depart="1.10">
        <route edges="3:1 1:5"/>
    </vehicle>
    <vehicle id="12" depart="1.20">
        <route edges="8:2 2:0 0:1 1:5 5:6"/>
    </vehicle>
    <vehicle id="14" depart="1.40">
        <route edges="3:1 1:0 0:2"/>
    </vehicle>
    <vehicle id="17" depart="1.70">
        <route edges="8:2 2:0 0:1 1:3"/>
    </vehicle>
    <vehicle id="18" depart="1.80">
        <route edges="3:1 1:0 0:2 2:8"/>
    </vehicle>
    <vehicle id="19" depart="1.90">
        <route edges="0:2 2:8"/>
    </vehicle>
    <vehicle id="20" depart="2.00">
        <route edges="10:9 9:0 0:1 1:3 3:7"/>
    </vehicle>
    <vehicle id="21" depart="2.10">
        <route edges="8:2 2:0 0:1 1:5"/>
    </vehicle>
    <vehicle id="23" depart="2.30">
        <route edges="1:3 3:7"/>
    </vehicle>
    <vehicle id="25" depart="2.50">
        <route edges="8:2 2:0 0:1 1:5 5:6"/>
    </vehicle>
    <vehicle id="27" depart="2.70">
        <route edges="9:0 0:2 2:8"/>
    </vehicle>
    <vehicle id="30" depart="3.00">
        <route edges="8:2 2:0"/>
    </vehicle>
    <vehicle id="32" depart="3.20">
        <route edges="3:1 1:0 0:2 2:8"/>
    </vehicle>
    <vehicle id="36" depart="3.60">
        <route edges="8:2 2:0 0:1 1:3 3:7"/>
    </vehicle>
    <vehicle id="37" depart="3.70">
        <route edges="0:1 1:3"/>
    </vehicle>
    <vehicle id="39" depart="3.90">
        <route edges="2:0 0:1 1:3"/>
    </vehicle>
    <vehicle id="40" depart="4.00">
        <route edges="6:5 5:1 1:3 3:7"/>
    </vehicle>
    <vehicle id="42" depart="4.20">
        <route edges="7:3 3:1 1:0 0:2 2:8"/>
    </vehicle>
    <vehicle id="44" depart="4.40">
        <route edges="5:1 1:0 0:2"/>
    </vehicle>
    <vehicle id="48" depart="4.80">
        <route edges="10:9 9:0 0:1 1:3 3:7"/>
    </vehicle>
    <vehicle id="51" depart="5.10">
        <route edges="7:3 3:1 1:0 0:2 2:8"/>
    </vehicle>
    <vehicle id="52" depart="5.20">
        <route edges="0:1 1:3 3:7"/>
    </vehicle>
    <vehicle id="54" depart="5.40">
        <route edges="6:5 5:1 1:0 0:9 9:10"/>
    </vehicle>
    <vehicle id="57" depart="5.70">
        <route edges="8:2 2:0 0:1 1:3"/>
    </vehicle>
    <vehicle id="59" depart="5.90">
        <route edges="7:3 3:1 1:5 5:6"/>
    </vehicle>
    <vehicle id="60" depart="6.00">
        <route edges="7:3 3:1 1:0"/>
    </vehicle>
    <vehicle id="62" depart="6.20">
        <route edges="7:3 3:1 1:5 5:6"/>
    </vehicle>
    <vehicle id="64" depart="6.40">
        <route edges="8:2 2:0 0:1 1:5 5:6"/>
    </vehicle>
    <vehicle id="65" depart="6.50">
        <route edges="3:1 1:0"/>
    </vehicle>
    <vehicle id="66" depart="6.60">
        <route edges="7:3 3:1 1:0 0:2 2:8"/>
    </vehicle>
    <vehicle id="68" depart="6.80">
        <route edges="2:0 0:9"/>
    </vehicle>
    <vehicle id="70" depart="7.00">
        <route edges="2:0 0:1"/>
    </vehicle>
    <vehicle id="72" depart="7.20">
        <route edges="5:1 1:0 0:9 9:10"/>
    </vehicle>
    <vehicle id="73" depart="7.30">
        <route edges="9:0 0:2"/>
    </vehicle>
    <vehicle id="74" depart="7.40">
        <route edges="6:5 5:1 1:0"/>
    </vehicle>
    <vehicle id="75" depart="7.50">
        <route edges="10:9 9:0 0:1 1:3 3:7"/>
    </vehicle>
    <vehicle id="77" depart="7.70">
        <route edges="10:9 9:0 0:2 2:8"/>
    </vehicle>
    <vehicle id="78" depart="7.80">
        <route edges="7:3 3:1"/>
    </vehicle>
    <vehicle id="79" depart="7.90">
        <route edges="0:2 2:8"/>
    </vehicle>
    <vehicle id="81" depart="8.10">
        <route edges="1:0 0:2"/>
    </vehicle>
    <vehicle id="82" depart="8.20">
        <route edges="7:3 3:1 1:0 0:2 2:8"/>
    </vehicle>
    <vehicle id="83" depart="8.30">
        <route edges="3:1"/>
    </vehicle>
    <vehicle id="87" depart="8.70">
        <route edges="0:2"/>
    </vehicle>
    <vehicle id="88" depart="8.80">
        <route edges="10:9 9:0 0:1"/>
    </vehicle>
    <vehicle id="90" depart="9.00">
        <route edges="2:0 0:9 9:10"/>
    </vehicle>
    <vehicle id="91" depart="9.10">
        <route edges="10:9 9:0 0:2"/>
    </vehicle>
    <vehicle id="92" depart="9.20">
        <route edges="0:2 2:8"/>
    </vehicle>
    <vehicle id="98" depart="9.80">
        <route edges="1:5"/>
    </vehicle>
    <vehicle id="99" depart="9.90">
        <route edges="8:2 2:0 0:1 1:3 3:7"/>
    </vehicle>
    <vehicle id="100" depart="10.00">
        <route edges="0:1 1:5 5:6"/>
    </vehicle>
    <vehicle id="101" depart="10.10">
        <route edges="8:2 2:0 0:9 9:10"/>
    </vehicle>
    <vehicle id="102" depart="10.20">
        <route edges="1:0 0:2 2:8"/>
    </vehicle>
    <vehicle id="103" depart="10.30">
        <route edges="7:3 3:1 1:0 0:2 2:8"/>
    </vehicle>
    <vehicle id="104" depart="10.40">
        <route edges="9:0 0:2"/>
    </vehicle>
    <vehicle id="105" depart="10.50">
        <route edges="10:9 9:0 0:1 1:3"/>
    </vehicle>
    <vehicle id="111" depart="11.10">
        <route edges="3:1 1:0 0:2 2:8"/>
    </vehicle>
    <vehicle id="112" depart="11.20">
        <route edges="6:5 5:1"/>
    </vehicle>
    <vehicle id="113" depart="11.30">
        <route edges="8:2 2:0 0:1 1:3 3:7"/>
    </vehicle>
    <vehicle id="114" depart="11.40">
        <route edges="1:3"/>
    </vehicle>
    <vehicle id="115" depart="11.50">
        <route edges="1:5 5:6"/>
    </vehicle>
    <vehicle id="116" depart="11.60">
        <route edges="1:0 0:2 2:8"/>
    </vehicle>
    <vehicle id="117" depart="11.70">
        <route edges="6:5 5:1 1:0 0:2 2:8"/>
    </vehicle>
    <vehicle id="118" depart="11.80">
        <route edges="8:2 2:0 0:1 1:5 5:6"/>
    </vehicle>
    <vehicle id="121" depart="12.10">
        <route edges="2:0"/>
    </vehicle>
    <vehicle id="123" depart="12.30">
        <route edges="8:2 2:0"/>
    </vehicle>
    <vehicle id="128" depart="12.80">
        <route edges="0:2 2:8"/>
    </vehicle>
    <vehicle id="129" depart="12.90">
        <route edges="7:3 3:1 1:0 0:2"/>
    </vehicle>
    <vehicle id="132" depart="13.20">
        <route edges="0:1 1:3 3:7"/>
    </vehicle>
    <vehicle id="133" depart="13.30">
        <route edges="7:3 3:1 1:0 0:9 9:10"/>
    </vehicle>
    <vehicle id="134" depart="13.40">
        <route edges="0:2 2:8"/>
    </vehicle>
    <vehicle id="138" depart="13.80">
        <route edges="8:2 2:0 0:1 1:3"/>
    </vehicle>
    <vehicle id="139" depart="13.90">
        <route edges="8:2 2:0 0:1 1:3 3:7"/>
    </vehicle>
    <vehicle id="141" depart="14.10">
        <route edges="7:3 3:1 1:0 0:2"/>
    </vehicle>
    <vehicle id="143" depart="14.30">
        <route edges="6:5 5:1 1:3 3:7"/>
    </vehicle>
    <vehicle id="150" depart="15.00">
        <route edges="1:0 0:2"/>
    </vehicle>
    <vehicle id="151" depart="15.10">
        <route edges="3:1 1:0 0:2 2:8"/>
    </vehicle>
    <vehicle id="155" depart="15.50">
        <route edges="8:2 2:0 0:1 1:3 3:7"/>
    </vehicle>
    <vehicle id="158" depart="15.80">
        <route edges="6:5 5:1 1:0 0:2 2:8"/>
    </vehicle>
    <vehicle id="159" depart="15.90">
        <route edges="5:1 1:0 0:2"/>
    </vehicle>
    <vehicle id="160" depart="16.00">
        <route edges="5:1 1:3"/>
    </vehicle>
    <vehicle id="162" depart="16.20">
        <route edges="5:1 1:3"/>
    </vehicle>
    <vehicle id="164" depart="16.40">
        <route edges="1:0 0:2 2:8"/>
    </vehicle>
    <vehicle id="168" depart="16.80">
        <route edges="3:1 1:0"/>
    </vehicle>
    <vehicle id="169" depart="16.90">
        <route edges="1:0 0:2"/>
    </vehicle>
    <vehicle id="170" depart="17.00">
        <route edges="1:3"/>
    </vehicle>
    <vehicle id="171" depart="17.10">
        <route edges="7:3 3:1 1:0 0:2"/>
    </vehicle>
    <vehicle id="172" depart="17.20">
        <route edges="9:0 0:1 1:3 3:7"/>
    </vehicle>
    <vehicle id="177" depart="17.70">
        <route edges="7:3 3:1 1:5 5:6"/>
    </vehicle>
    <vehicle id="179" depart="17.90">
        <route edges="5:1 1:0 0:2 2:8"/>
    </vehicle>
    <vehicle id="180" depart="18.00">
        <route edges="0:2 2:8"/>
    </vehicle>
    <vehicle id="182" depart="18.20">
        <route edges="7:3 3:1 1:0 0:9 9:10"/>
    </vehicle>
    <vehicle id="183" depart="18.30">
        <route edges="7:3 3:1 1:0 0:9"/>
    </vehicle>
    <vehicle id="185" depart="18.50">
        <route edges="0:1 1:3 3:7"/>
    </vehicle>
    <vehicle id="189" depart="18.90">
        <route edges="7:3 3:1 1:0 0:2"/>
    </vehicle>
    <vehicle id="192" depart="19.20">
        <route edges="7:3 3:1 1:0 0:2"/>
    </vehicle>
    <vehicle id="196" depart="19.60">
        <route edges="2:0"/>
    </vehicle>
    <vehicle id="198" depart="19.80">
        <route edges="10:9 9:0 0:2"/>
    </vehicle>
    <vehicle id="199" depart="19.90">
        <route edges="7:3 3:1 1:0 0:2 2:8"/>
    </vehicle>
    <vehicle id="200" depart="20.00">
        <route edges="8:2 2:0 0:1 1:5 5:6"/>
    </vehicle>
    <vehicle id="201" depart="20.10">
        <route edges="9:0 0:1 1:3 3:7"/>
    </vehicle>
    <vehicle id="203" depart="20.30">
        <route edges="10:9 9:0 0:1 1:3 3:7"/>
    </vehicle>
    <vehicle id="204" depart="20.40">
        <route edges="8:2 2:0 0:1 1:5 5:6"/>
    </vehicle>
    <vehicle id="205" depart="20.50">
        <route edges="7:3 3:1 1:0"/>
    </vehicle>
    <vehicle id="206" depart="20.60">
        <route edges="10:9 9:0 0:1 1:3"/>
    </vehicle>
    <vehicle id="207" depart="20.70">
        <route edges="0:2 2:8"/>
    </vehicle>
    <vehicle id="212" depart="21.20">
        <route edges="6:5 5:1 1:0 0:9 9:10"/>
    </vehicle>
    <vehicle id="217" depart="21.70">
        <route edges="1:3"/>
    </vehicle>
    <vehicle id="218" depart="21.80">
        <route edges="6:5 5:1 1:0 0:9"/>
    </vehicle>
    <vehicle id="219" depart="21.90">
        <route edges="5:1"/>
    </vehicle>
    <vehicle id="220" depart="22.00">
        <route edges="6:5 5:1 1:3"/>
    </vehicle>
    <vehicle id="221" depart="22.10">
        <route edges="2:0 0:1 1:5 5:6"/>
    </vehicle>
    <vehicle id="222" depart="22.20">
        <route edges="6:5 5:1 1:3 3:7"/>
    </vehicle>
    <vehicle id="225" depart="22.50">
        <route edges="8:2 2:0 0:9"/>
    </vehicle>
    <vehicle id="230" depart="23.00">
        <route edges="0:9 9:10"/>
    </vehicle>
    <vehicle id="231" depart="23.10">
        <route edges="0:1 1:3"/>
    </vehicle>
    <vehicle id="232" depart="23.20">
        <route edges="6:5 5:1 1:3 3:7"/>
    </vehicle>
    <vehicle id="233" depart="23.30">
        <route edges="0:1 1:3"/>
    </vehicle>
    <vehicle id="235" depart="23.50">
        <route edges="7:3 3:1 1:0 0:2 2:8"/>
    </vehicle>
    <vehicle id="236" depart="23.60">
        <route edges="5:1 1:0 0:2 2:8"/>
    </vehicle>
    <vehicle id="238" depart="23.80">
        <route edges="7:3 3:1 1:0"/>
    </vehicle>
    <vehicle id="241" depart="24.10">
        <route edges="3:1 1:0 0:2 2:8"/>
    </vehicle>
    <vehicle id="246" depart="24.60">
        <route edges="7:3 3:1 1:0 0:2"/>
    </vehicle>
    <vehicle id="247" depart="24.70">
        <route edges="8:2 2:0 0:1 1:3 3:7"/>
    </vehicle>
    <vehicle id="249" depart="24.90">
        <route edges="8:2 2:0 0:1"/>
    </vehicle>
    <vehicle id="250" depart="25.00">
        <route edges="8:2 2:0 0:1 1:5 5:6"/>
    </vehicle>
    <vehicle id="252" depart="25.20">
        <route edges="7:3 3:1 1:0 0:2 2:8"/>
    </vehicle>
    <vehicle id="254" depart="25.40">
        <route edges="7:3 3:1 1:0 0:9"/>
    </vehicle>
    <vehicle id="255" depart="25.50">
        <route edges="3:1 1:0 0:2 2:8"/>
    </vehicle>
    <vehicle id="257" depart="25.70">
        <route edges="8:2 2:0 0:1 1:5 5:6"/>
    </vehicle>
    <vehicle id="260" depart="26.00">
        <route edges="1:3 3:7"/>
    </vehicle>
    <vehicle id="261" depart="26.10">
        <route edges="3:1 1:0 0:2"/>
    </vehicle>
    <vehicle id="262" depart="26.20">
        <route edges="7:3 3:1 1:0 0:2 2:8"/>
    </vehicle>
    <vehicle id="263" depart="26.30">
        <route edges="6:5 5:1 1:3 3:7"/>
    </vehicle>
    <vehicle id="265" depart="26.50">
        <route edges="5:1 1:0 0:9 9:10"/>
    </vehicle>
    <vehicle id="267" depart="26.70">
        <route edges="8:2 2:0"/>
    </vehicle>
    <vehicle id="269" depart="26.90">
        <route edges="2:0 0:9 9:10"/>
    </vehicle>
    <vehicle id="271" depart="27.10">
        <route edges="8:2 2:0 0:1 1:3"/>
    </vehicle>
    <vehicle id="272" depart="27.20">
        <route edges="0:2"/>
    </vehicle>
    <vehicle id="273" depart="27.30">
        <route edges="8:2 2:0 0:1 1:5 5:6"/>
    </vehicle>
    <vehicle id="274" depart="27.40">
        <route edges="1:0 0:2"/>
    </vehicle>
    <vehicle id="275" depart="27.50">
        <route edges="8:2 2:0"/>
    </vehicle>
    <vehicle id="277" depart="27.70">
        <route edges="5:1 1:0 0:9 9:10"/>
    </vehicle>
    <vehicle id="279" depart="27.90">
        <route edges="10:9 9:0 0:2 2:8"/>
    </vehicle>
    <vehicle id="284" depart="28.40">
        <route edges="7:3 3:1 1:0"/>
    </vehicle>
    <vehicle id="286" depart="28.60">
        <route edges="3:1 1:0 0:2 2:8"/>
    </vehicle>
    <vehicle id="287" depart="28.70">
        <route edges="3:1 1:0 0:2 2:8"/>
    </vehicle>
    <vehicle id="289" depart="28.90">
        <route edges="0:9 9:10"/>
    </vehicle>
    <vehicle id="293" depart="29.30">
        <route edges="8:2 2:0 0:9 9:10"/>
    </vehicle>
    <vehicle id="294" depart="29.40">
        <route edges="2:0 0:1 1:5"/>
    </vehicle>
    <vehicle id="295" depart="29.50">
        <route edges="8:2 2:0"/>
    </vehicle>
    <vehicle id="296" depart="29.60">
        <route edges="7:3 3:1 1:5"/>
    </vehicle>
    <vehicle id="297" depart="29.70">
        <route edges="7:3 3:1 1:0 0:2"/>
    </vehicle>
    <vehicle id="301" depart="30.10">
        <route edges="1:3 3:7"/>
    </vehicle>
    <vehicle id="303" depart="30.30">
        <route edges="8:2 2:0 0:1 1:3 3:7"/>
    </vehicle>
    <vehicle id="305" depart="30.50">
        <route edges="8:2 2:0 0:1 1:3 3:7"/>
    </vehicle>
    <vehicle id="307" depart="30.70">
        <route edges="7:3 3:1 1:0 0:9 9:10"/>
    </vehicle>
    <vehicle id="308" depart="30.80">
        <route edges="10:9 9:0 0:2 2:8"/>
    </vehicle>
    <vehicle id="309" depart="30.90">
        <route edges="8:2 2:0 0:1 1:5"/>
    </vehicle>
    <vehicle id="310" depart="31.00">
        <route edges="8:2 2:0 0:1 1:3 3:7"/>
    </vehicle>
    <vehicle id="314" depart="31.40">
        <route edges="7:3 3:1 1:0 0:2 2:8"/>
    </vehicle>
    <vehicle id="315" depart="31.50">
        <route edges="1:0 0:2 2:8"/>
    </vehicle>
    <vehicle id="317" depart="31.70">
        <route edges="1:3"/>
    </vehicle>
    <vehicle id="318" depart="31.80">
        <route edges="8:2 2:0 0:1 1:3 3:7"/>
    </vehicle>
    <vehicle id="320" depart="32.00">
        <route edges="9:0 0:1 1:3 3:7"/>
    </vehicle>
    <vehicle id="321" depart="32.10">
        <route edges="2:0 0:1 1:3"/>
    </vehicle>
    <vehicle id="322" depart="32.20">
        <route edges="0:1 1:5"/>
    </vehicle>
    <vehicle id="329" depart="32.90">
        <route edges="8:2 2:0 0:1 1:3"/>
    </vehicle>
    <vehicle id="334" depart="33.40">
        <route edges="7:3 3:1 1:0 0:2 2:8"/>
    </vehicle>
    <vehicle id="336" depart="33.60">
        <route edges="7:3 3:1 1:0 0:2 2:8"/>
    </vehicle>
    <vehicle id="339" depart="33.90">
        <route edges="2:0 0:1 1:3 3:7"/>
    </vehicle>
    <vehicle id="340" depart="34.00">
        <route edges="7:3 3:1"/>
    </vehicle>
    <vehicle id="342" depart="34.20">
        <route edges="2:0 0:1 1:3 3:7"/>
    </vehicle>
    <vehicle id="345" depart="34.50">
        <route edges="7:3 3:1 1:0 0:9 9:10"/>
    </vehicle>
    <vehicle id="348" depart="34.80">
        <route edges="7:3 3:1 1:0 0:2"/>
    </vehicle>
    <vehicle id="351" depart="35.10">
        <route edges="1:3"/>
    </vehicle>
    <vehicle id="352" depart="35.20">
        <route edges="5:1 1:0 0:2 2:8"/>
    </vehicle>
    <vehicle id="354" depart="35.40">
        <route edges="8:2 2:0 0:1 1:3 3:7"/>
    </vehicle>
    <vehicle id="355" depart="35.50">
        <route edges="6:5 5:1 1:3"/>
    </vehicle>
    <vehicle id="356" depart="35.60">
        <route edges="9:0 0:1 1:3 3:7"/>
    </vehicle>
    <vehicle id="357" depart="35.70">
        <route edges="0:1 1:5 5:6"/>
    </vehicle>
    <vehicle id="358" depart="35.80">
        <route edges="8:2 2:0 0:1 1:5 5:6"/>
    </vehicle>
    <vehicle id="359" depart="35.90">
        <route edges="7:3 3:1 1:5 5:6"/>
    </vehicle>
    <vehicle id="361" depart="36.10">
        <route edges="10:9 9:0 0:1 1:3 3:7"/>
    </vehicle>
    <vehicle id="362" depart="36.20">
        <route edges="2:0 0:1 1:3 3:7"/>
    </vehicle>
    <vehicle id="363" depart="36.30">
        <route edges="8:2 2:0 0:1 1:3"/>
    </vehicle>
    <vehicle id="366" depart="36.60">
        <route edges="0:2 2:8"/>
    </vehicle>
    <vehicle id="369" depart="36.90">
        <route edges="2:0 0:1 1:5 5:6"/>
    </vehicle>
    <vehicle id="371" depart="37.10">
        <route edges="7:3 3:1 1:0"/>
    </vehicle>
    <vehicle id="373" depart="37.30">
        <route edges="8:2 2:0 0:9"/>
    </vehicle>
    <vehicle id="378" depart="37.80">
        <route edges="6:5 5:1 1:3 3:7"/>
    </vehicle>
    <vehicle id="379" depart="37.90">
        <route edges="0:1 1:3 3:7"/>
    </vehicle>
    <vehicle id="380" depart="38.00">
        <route edges="3:1 1:0 0:2"/>
    </vehicle>
    <vehicle id="381" depart="38.10">
        <route edges="6:5 5:1"/>
    </vehicle>
    <vehicle id="383" depart="38.30">
        <route edges="5:1 1:0 0:9 9:10"/>
    </vehicle>
    <vehicle id="386" depart="38.60">
        <route edges="1:3 3:7"/>
    </vehicle>
    <vehicle id="388" depart="38.80">
        <route edges="9:0 0:2 2:8"/>
    </vehicle>
    <vehicle id="390" depart="39.00">
        <route edges="6:5 5:1 1:0 0:9 9:10"/>
    </vehicle>
    <vehicle id="391" depart="39.10">
        <route edges="8:2 2:0 0:1 1:3 3:7"/>
    </vehicle>
    <vehicle id="394" depart="39.40">
        <route edges="8:2 2:0 0:1 1:3"/>
    </vehicle>
    <vehicle id="395" depart="39.50">
        <route edges="10:9 9:0"/>
    </vehicle>
    <vehicle id="399" depart="39.90">
        <route edges="8:2 2:0 0:9"/>
    </vehicle>
    <vehicle id="404" depart="40.40">
        <route edges="1:5"/>
    </vehicle>
    <vehicle id="405" depart="40.50">
        <route edges="0:2 2:8"/>
    </vehicle>
    <vehicle id="413" depart="41.30">
        <route edges="0:2 2:8"/>
    </vehicle>
    <vehicle id="414" depart="41.40">
        <route edges="0:1 1:3 3:7"/>
    </vehicle>
    <vehicle id="418" depart="41.80">
        <route edges="2:0"/>
    </vehicle>
    <vehicle id="419" depart="41.90">
        <route edges="7:3 3:1"/>
    </vehicle>
    <vehicle id="420" depart="42.00">
        <route edges="8:2 2:0 0:1 1:5 5:6"/>
    </vehicle>
    <vehicle id="421" depart="42.10">
        <route edges="1:3"/>
    </vehicle>
    <vehicle id="422" depart="42.20">
        <route edges="6:5 5:1 1:3 3:7"/>
    </vehicle>
    <vehicle id="423" depart="42.30">
        <route edges="3:1 1:0 0:2"/>
    </vehicle>
    <vehicle id="424" depart="42.40">
        <route edges="6:5 5:1 1:3"/>
    </vehicle>
    <vehicle id="426" depart="42.60">
        <route edges="8:2 2:0 0:9"/>
    </vehicle>
    <vehicle id="427" depart="42.70">
        <route edges="8:2 2:0 0:1"/>
    </vehicle>
    <vehicle id="429" depart="42.90">
        <route edges="7:3 3:1 1:0 0:2"/>
    </vehicle>
    <vehicle id="431" depart="43.10">
        <route edges="9:0 0:2"/>
    </vehicle>
    <vehicle id="432" depart="43.20">
        <route edges="5:1 1:0 0:2 2:8"/>
    </vehicle>
    <vehicle id="434" depart="43.40">
        <route edges="0:9 9:10"/>
    </vehicle>
    <vehicle id="435" depart="43.50">
        <route edges="0:1 1:3 3:7"/>
    </vehicle>
    <vehicle id="444" depart="44.40">
        <route edges="9:0 0:1 1:3 3:7"/>
    </vehicle>
    <vehicle id="448" depart="44.80">
        <route edges="3:1 1:0 0:2"/>
    </vehicle>
    <vehicle id="451" depart="45.10">
        <route edges="6:5 5:1 1:0 0:2"/>
    </vehicle>
    <vehicle id="452" depart="45.20">
        <route edges="5:1 1:0 0:2 2:8"/>
    </vehicle>
    <vehicle id="455" depart="45.50">
        <route edges="7:3 3:1"/>
    </vehicle>
    <vehicle id="457" depart="45.70">
        <route edges="1:3"/>
    </vehicle>
    <vehicle id="460" depart="46.00">
        <route edges="0:2 2:8"/>
    </vehicle>
    <vehicle id="463" depart="46.30">
        <route edges="6:5 5:1 1:3 3:7"/>
    </vehicle>
    <vehicle id="464" depart="46.40">
        <route edges="8:2 2:0 0:1"/>
    </vehicle>
    <vehicle id="467" depart="46.70">
        <route edges="8:2 2:0 0:9 9:10"/>
    </vehicle>
    <vehicle id="468" depart="46.80">
        <route edges="8:2 2:0 0:9"/>
    </vehicle>
    <vehicle id="469" depart="46.90">
        <route edges="6:5 5:1 1:3 3:7"/>
    </vehicle>
    <vehicle id="471" depart="47.10">
        <route edges="1:0"/>
    </vehicle>
    <vehicle id="474" depart="47.40">
        <route edges="7:3 3:1"/>
    </vehicle>
    <vehicle id="475" depart="47.50">
        <route edges="8:2 2:0 0:1 1:3 3:7"/>
    </vehicle>
    <vehicle id="482" depart="48.20">
        <route edges="8:2 2:0 0:1 1:3"/>
    </vehicle>
    <vehicle id="484" depart="48.40">
        <route edges="1:3"/>
    </vehicle>
    <vehicle id="486" depart="48.60">
        <route edges="10:9 9:0 0:2"/>
    </vehicle>
    <vehicle id="487" depart="48.70">
        <route edges="2:0 0:9"/>
    </vehicle>
    <vehicle id="490" depart="49.00">
        <route edges="8:2 2:0 0:9"/>
    </vehicle>
    <vehicle id="491" depart="49.10">
        <route edges="7:3 3:1 1:0 0:9"/>
    </vehicle>
    <vehicle id="494" depart="49.40">
        <route edges="0:1 1:3"/>
    </vehicle>
    <vehicle id="495" depart="49.50">
        <route edges="7:3 3:1 1:0 0:2"/>
    </vehicle>
    <vehicle id="499" depart="49.90">
        <route edges="3:1 1:0 0:2 2:8"/>
    </vehicle>
    <vehicle id="500" depart="50.00">
        <route edges="2:0"/>
    </vehicle>
    <vehicle id="501" depart="50.10">
        <route edges="3:1 1:0 0:2 2:8"/>
    </vehicle>
    <vehicle id="503" depart="50.30">
        <route edges="9:0 0:2"/>
    </vehicle>
    <vehicle id="505" depart="50.50">
        <route edges="7:3 3:1 1:0 0:2 2:8"/>
    </vehicle>
    <vehicle id="507" depart="50.70">
        <route edges="1:3 3:7"/>
    </vehicle>
    <vehicle id="511" depart="51.10">
        <route edges="8:2 2:0 0:9 9:10"/>
    </vehicle>
    <vehicle id="513" depart="51.30">
        <route edges="5:1 1:0 0:2 2:8"/>
    </vehicle>
    <vehicle id="521" depart="52.10">
        <route edges="6:5 5:1 1:0 0:2 2:8"/>
    </vehicle>
    <vehicle id="523" depart="52.30">
        <route edges="8:2 2:0 0:1 1:3"/>
    </vehicle>
    <vehicle id="528" depart="52.80">
        <route edges="5:1 1:0 0:2 2:8"/>
    </vehicle>
    <vehicle id="529" depart="52.90">
        <route edges="2:0 0:1 1:3 3:7"/>
    </vehicle>
    <vehicle id="530" depart="53.00">
        <route edges="3:1 1:0 0:2"/>
    </vehicle>
    <vehicle id="531" depart="53.10">
        <route edges="6:5 5:1 1:0 0:2"/>
    </vehicle>
    <vehicle id="533" depart="53.30">
        <route edges="3:1 1:0 0:2 2:8"/>
    </vehicle>
    <vehicle id="534" depart="53.40">
        <route edges="1:3 3:7"/>
    </vehicle>
    <vehicle id="536" depart="53.60">
        <route edges="9:0 0:1 1:3"/>
    </vehicle>
    <vehicle id="543" depart="54.30">
        <route edges="10:9 9:0 0:1 1:3 3:7"/>
    </vehicle>
    <vehicle id="544" depart="54.40">
        <route edges="8:2 2:0 0:1 1:3 3:7"/>
    </vehicle>
    <vehicle id="545" depart="54.50">
        <route edges="10:9 9:0 0:2 2:8"/>
    </vehicle>
    <vehicle id="548" depart="54.80">
        <route edges="8:2 2:0 0:1 1:3"/>
    </vehicle>
    <vehicle id="549" depart="54.90">
        <route edges="5:1 1:0 0:2 2:8"/>
    </vehicle>
    <vehicle id="551" depart="55.10">
        <route edges="3:1 1:0 0:2"/>
    </vehicle>
    <vehicle id="553" depart="55.30">
        <route edges="0:1 1:3 3:7"/>
    </vehicle>
    <vehicle id="554" depart="55.40">
        <route edges="7:3 3:1 1:0 0:2 2:8"/>
    </vehicle>
    <vehicle id="556" depart="55.60">
        <route edges="8:2 2:0"/>
    </vehicle>
    <vehicle id="559" depart="55.90">
        <route edges="6:5 5:1 1:0 0:9 9:10"/>
    </vehicle>
    <vehicle id="561" depart="56.10">
        <route edges="10:9 9:0 0:1 1:3 3:7"/>
    </vehicle>
    <vehicle id="564" depart="56.40">
        <route edges="1:3 3:7"/>
    </vehicle>
    <vehicle id="568" depart="56.80">
        <route edges="9:0 0:1 1:3"/>
    </vehicle>
    <vehicle id="570" depart="57.00">
        <route edges="3:1 1:0 0:2 2:8"/>
    </vehicle>
    <vehicle id="572" depart="57.20">
        <route edges="10:9 9:0 0:2"/>
    </vehicle>
    <vehicle id="574" depart="57.40">
        <route edges="7:3 3:1 1:0 0:2 2:8"/>
    </vehicle>
    <vehicle id="576" depart="57.60">
        <route edges="6:5 5:1 1:0 0:9 9:10"/>
    </vehicle>
    <vehicle id="580" depart="58.00">
        <route edges="8:2 2:0"/>
    </vehicle>
    <vehicle id="581" depart="58.10">
        <route edges="3:1 1:0 0:2"/>
    </vehicle>
    <vehicle id="582" depart="58.20">
        <route edges="6:5 5:1 1:3 3:7"/>
    </vehicle>
    <vehicle id="583" depart="58.30">
        <route edges="3:1 1:0 0:2"/>
    </vehicle>
    <vehicle id="587" depart="58.70">
        <route edges="1:0 0:9 9:10"/>
    </vehicle>
    <vehicle id="588" depart="58.80">
        <route edges="7:3 3:1"/>
    </vehicle>
    <vehicle id="592" depart="59.20">
        <route edges="2:0"/>
    </vehicle>
    <vehicle id="595" depart="59.50">
        <route edges="8:2 2:0 0:1 1:5"/>
    </vehicle>
    <vehicle id="597" depart="59.70">
        <route edges="3:1 1:0 0:2 2:8"/>
    </vehicle>
    <vehicle id="599" depart="59.90">
        <route edges="8:2 2:0"/>
    </vehicle>
    <vehicle id="600" depart="60.00">
        <route edges="8:2 2:0"/>
    </vehicle>
    <vehicle id="604" depart="60.40">
        <route edges="6:5 5:1 1:0 0:2 2:8"/>
    </vehicle>
    <vehicle id="605" depart="60.50">
        <route edges="0:9"/>
    </vehicle>
    <vehicle id="613" depart="61.30">
        <route edges="0:1 1:3"/>
    </vehicle>
    <vehicle id="614" depart="61.40">
        <route edges="0:2"/>
    </vehicle>
    <vehicle id="616" depart="61.60">
        <route edges="5:1 1:0 0:2 2:8"/>
    </vehicle>
    <vehicle id="618" depart="61.80">
        <route edges="2:0"/>
    </vehicle>
    <vehicle id="619" depart="61.90">
        <route edges="0:1 1:3 3:7"/>
    </vehicle>
    <vehicle id="620" depart="62.00">
        <route edges="3:1"/>
    </vehicle>
    <vehicle id="621" depart="62.10">
        <route edges="6:5 5:1 1:3 3:7"/>
    </vehicle>
    <vehicle id="622" depart="62.20">
        <route edges="7:3 3:1"/>
    </vehicle>
    <vehicle id="624" depart="62.40">
        <route edges="7:3 3:1 1:0 0:2 2:8"/>
    </vehicle>
    <vehicle id="627" depart="62.70">
        <route edges="8:2 2:0 0:1 1:3 3:7"/>
    </vehicle>
    <vehicle id="633" depart="63.30">
        <route edges="10:9 9:0 0:1 1:3"/>
    </vehicle>
    <vehicle id="635" depart="63.50">
        <route edges="3:1 1:0 0:9 9:10"/>
    </vehicle>
    <vehicle id="636" depart="63.60">
        <route edges="7:3 3:1"/>
    </vehicle>
    <vehicle id="637" depart="63.70">
        <route edges="3:1 1:0 0:2 2:8"/>
    </vehicle>
    <vehicle id="641" depart="64.10">
        <route edges="8:2 2:0 0:1 1:3 3:7"/>
    </vehicle>
    <vehicle id="643" depart="64.30">
        <route edges="7:3 3:1 1:5"/>
    </vehicle>
    <vehicle id="644" depart="64.40">
        <route edges="8:2 2:0 0:1"/>
    </vehicle>
    <vehicle id="646" depart="64.60">
        <route edges="3:1 1:5 5:6"/>
    </vehicle>
    <vehicle id="648" depart="64.80">
        <route edges="3:1 1:0 0:2 2:8"/>
    </vehicle>
    <vehicle id="651" depart="65.10">
        <route edges="3:1 1:0 0:2"/>
    </vehicle>
    <vehicle id="652" depart="65.20">
        <route edges="8:2 2:0 0:1"/>
    </vehicle>
    <vehicle id="653" depart="65.30">
        <route edges="0:2 2:8"/>
    </vehicle>
    <vehicle id="654" depart="65.40">
        <route edges="3:1 1:5"/>
    </vehicle>
    <vehicle id="655" depart="65.50">
        <route edges="2:0 0:1 1:5"/>
    </vehicle>
    <vehicle id="656" depart="65.60">
        <route edges="3:1 1:0 0:2 2:8"/>
    </vehicle>
    <vehicle id="657" depart="65.70">
        <route edges="7:3 3:1"/>
    </vehicle>
    <vehicle id="659" depart="65.90">
        <route edges="3:1 1:0 0:9"/>