<?xml version="1.0" encoding="UTF-8"?>

<!-- generated on Thu Feb 13 14:13:56 2014 by SUMO duarouter Version 0.18.0
<?xml version="1.0" encoding="UTF-8"?>

<configuration xmlns:xsi="http://www.w3.org/2001/XMLSchema-instance" xsi:noNamespaceSchemaLocation="http://sumo.sf.net/xsd/duarouterConfiguration.xsd">

    <input>
        <net-file value="twinT.net.xml"/>
        <trip-files value="experimentos/twinT.p0.1.2.trips.xml"/>
    </input>

    <output>
        <output-file value="experimentos/twinT.p0.1.2.rou.xml"/>
    </output>

    <processing>
        <ignore-errors value="true"/>
    </processing>

    <random_number>
        <random value="true"/>
    </random_number>

</configuration>
-->

<routes xmlns:xsi="http://www.w3.org/2001/XMLSchema-instance" xsi:noNamespaceSchemaLocation="http://sumo.sf.net/xsd/routes_file.xsd">
    <vehicle id="3" depart="0.30">
        <route edges="8:2 2:0 0:1 1:5 5:6"/>
    </vehicle>
    <vehicle id="5" depart="0.50">
        <route edges="3:1"/>
    </vehicle>
    <vehicle id="7" depart="0.70">
        <route edges="9:0 0:1 1:5 5:6"/>
    </vehicle>
    <vehicle id="11" depart="1.10">
        <route edges="7:3 3:1 1:0 0:2 2:8"/>
    </vehicle>
    <vehicle id="14" depart="1.40">
        <route edges="7:3 3:1"/>
    </vehicle>
    <vehicle id="15" depart="1.50">
        <route edges="7:3 3:1 1:0 0:2 2:8"/>
    </vehicle>
    <vehicle id="17" depart="1.70">
        <route edges="6:5 5:1 1:3 3:7"/>
    </vehicle>
    <vehicle id="22" depart="2.20">
        <route edges="7:3 3:1 1:0 0:2"/>
    </vehicle>
    <vehicle id="27" depart="2.70">
        <route edges="3:1 1:0 0:2 2:8"/>
    </vehicle>
    <vehicle id="30" depart="3.00">
        <route edges="9:0 0:1 1:3 3:7"/>
    </vehicle>
    <vehicle id="35" depart="3.50">
        <route edges="1:3"/>
    </vehicle>
    <vehicle id="37" depart="3.70">
        <route edges="2:0 0:1 1:3 3:7"/>
    </vehicle>
    <vehicle id="39" depart="3.90">
        <route edges="5:1 1:0 0:9"/>
    </vehicle>
    <vehicle id="41" depart="4.10">
        <route edges="7:3 3:1 1:0"/>
    </vehicle>
    <vehicle id="42" depart="4.20">
        <route edges="3:1"/>
    </vehicle>
    <vehicle id="43" depart="4.30">
        <route edges="3:1 1:0 0:2"/>
    </vehicle>
    <vehicle id="45" depart="4.50">
        <route edges="3:1 1:0 0:2"/>
    </vehicle>
    <vehicle id="48" depart="4.80">
        <route edges="0:1 1:3 3:7"/>
    </vehicle>
    <vehicle id="49" depart="4.90">
        <route edges="9:0 0:2 2:8"/>
    </vehicle>
    <vehicle id="50" depart="5.00">
        <route edges="3:1 1:0 0:2"/>
    </vehicle>
    <vehicle id="52" depart="5.20">
        <route edges="1:3 3:7"/>
    </vehicle>
    <vehicle id="53" depart="5.30">
        <route edges="6:5 5:1 1:0 0:9"/>
    </vehicle>
    <vehicle id="57" depart="5.70">
        <route edges="3:1 1:0 0:2 2:8"/>
    </vehicle>
    <vehicle id="58" depart="5.80">
        <route edges="8:2 2:0 0:1 1:3 3:7"/>
    </vehicle>
    <vehicle id="59" depart="5.90">
        <route edges="6:5 5:1 1:0 0:2 2:8"/>
    </vehicle>
    <vehicle id="60" depart="6.00">
        <route edges="2:0 0:9 9:10"/>
    </vehicle>
    <vehicle id="64" depart="6.40">
        <route edges="1:3 3:7"/>
    </vehicle>
    <vehicle id="67" depart="6.70">
        <route edges="8:2 2:0 0:1 1:3 3:7"/>
    </vehicle>
    <vehicle id="72" depart="7.20">
        <route edges="0:2 2:8"/>
    </vehicle>
    <vehicle id="73" depart="7.30">
        <route edges="6:5 5:1 1:3 3:7"/>
    </vehicle>
    <vehicle id="75" depart="7.50">
        <route edges="8:2 2:0 0:1 1:5"/>
    </vehicle>
    <vehicle id="77" depart="7.70">
        <route edges="7:3 3:1 1:0 0:2 2:8"/>
    </vehicle>
    <vehicle id="78" depart="7.80">
        <route edges="6:5 5:1 1:0"/>
    </vehicle>
    <vehicle id="79" depart="7.90">
        <route edges="6:5 5:1 1:0 0:2 2:8"/>
    </vehicle>
    <vehicle id="82" depart="8.20">
        <route edges="3:1 1:5 5:6"/>
    </vehicle>
    <vehicle id="84" depart="8.40">
        <route edges="5:1 1:0 0:2 2:8"/>
    </vehicle>
    <vehicle id="85" depart="8.50">
        <route edges="7:3 3:1 1:0 0:9 9:10"/>
    </vehicle>
    <vehicle id="86" depart="8.60">
        <route edges="8:2 2:0 0:1 1:5"/>
    </vehicle>
    <vehicle id="87" depart="8.70">
        <route edges="5:1 1:0 0:2"/>
    </vehicle>
    <vehicle id="88" depart="8.80">
        <route edges="8:2 2:0 0:1 1:3"/>
    </vehicle>
    <vehicle id="89" depart="8.90">
        <route edges="9:0 0:1 1:3 3:7"/>
    </vehicle>
    <vehicle id="91" depart="9.10">
        <route edges="8:2 2:0 0:1 1:5 5:6"/>
    </vehicle>
    <vehicle id="92" depart="9.20">
        <route edges="7:3 3:1 1:0"/>
    </vehicle>
    <vehicle id="94" depart="9.40">
        <route edges="8:2 2:0 0:1 1:3"/>
    </vehicle>
    <vehicle id="100" depart="10.00">
        <route edges="10:9 9:0 0:1"/>
    </vehicle>
    <vehicle id="101" depart="10.10">
        <route edges="2:0 0:1 1:5 5:6"/>
    </vehicle>
    <vehicle id="103" depart="10.30">
        <route edges="5:1 1:0 0:9 9:10"/>
    </vehicle>
    <vehicle id="104" depart="10.40">
        <route edges="7:3 3:1"/>
    </vehicle>
    <vehicle id="107" depart="10.70">
        <route edges="7:3 3:1 1:0 0:2 2:8"/>
    </vehicle>
    <vehicle id="109" depart="10.90">
        <route edges="8:2 2:0"/>
    </vehicle>
    <vehicle id="112" depart="11.20">
        <route edges="8:2 2:0 0:1 1:5"/>
    </vehicle>
    <vehicle id="113" depart="11.30">
        <route edges="8:2 2:0 0:1 1:3 3:7"/>
    </vehicle>
    <vehicle id="114" depart="11.40">
        <route edges="8:2 2:0 0:1 1:5 5:6"/>
    </vehicle>
    <vehicle id="115" depart="11.50">
        <route edges="8:2 2:0 0:9 9:10"/>
    </vehicle>
    <vehicle id="116" depart="11.60">
        <route edges="8:2 2:0 0:1 1:3 3:7"/>
    </vehicle>
    <vehicle id="117" depart="11.70">
        <route edges="8:2 2:0 0:1 1:3"/>
    </vehicle>
    <vehicle id="118" depart="11.80">
        <route edges="9:0 0:2"/>
    </vehicle>
    <vehicle id="120" depart="12.00">
        <route edges="7:3 3:1 1:0 0:2"/>
    </vehicle>
    <vehicle id="123" depart="12.30">
        <route edges="9:0 0:2 2:8"/>
    </vehicle>
    <vehicle id="124" depart="12.40">
        <route edges="8:2 2:0 0:9"/>
    </vehicle>
    <vehicle id="125" depart="12.50">
        <route edges="10:9 9:0 0:2 2:8"/>
    </vehicle>
    <vehicle id="126" depart="12.60">
        <route edges="10:9 9:0 0:2"/>
    </vehicle>
    <vehicle id="128" depart="12.80">
        <route edges="6:5 5:1 1:0 0:2 2:8"/>
    </vehicle>
    <vehicle id="129" depart="12.90">
        <route edges="1:0 0:2 2:8"/>
    </vehicle>
    <vehicle id="130" depart="13.00">
        <route edges="8:2 2:0 0:1 1:5 5:6"/>
    </vehicle>
    <vehicle id="131" depart="13.10">
        <route edges="8:2 2:0"/>
    </vehicle>
    <vehicle id="133" depart="13.30">
        <route edges="7:3 3:1 1:0 0:2"/>
    </vehicle>
    <vehicle id="135" depart="13.50">
        <route edges="7:3 3:1 1:0"/>
    </vehicle>
    <vehicle id="137" depart="13.70">
        <route edges="0:2 2:8"/>
    </vehicle>
    <vehicle id="138" depart="13.80">
        <route edges="8:2 2:0 0:9"/>
    </vehicle>
    <vehicle id="140" depart="14.00">
        <route edges="3:1 1:0"/>
    </vehicle>
    <vehicle id="141" depart="14.10">
        <route edges="3:1 1:0 0:2 2:8"/>
    </vehicle>
    <vehicle id="143" depart="14.30">
        <route edges="5:1 1:0 0:2 2:8"/>
    </vehicle>
    <vehicle id="144" depart="14.40">
        <route edges="9:0 0:2 2:8"/>
    </vehicle>
    <vehicle id="149" depart="14.90">
        <route edges="3:1 1:5"/>
    </vehicle>
    <vehicle id="150" depart="15.00">
        <route edges="8:2 2:0 0:1 1:5"/>
    </vehicle>
    <vehicle id="156" depart="15.60">
        <route edges="7:3 3:1 1:0 0:2 2:8"/>
    </vehicle>
    <vehicle id="159" depart="15.90">
        <route edges="7:3 3:1"/>
    </vehicle>
    <vehicle id="160" depart="16.00">
        <route edges="3:1 1:0 0:9 9:10"/>
    </vehicle>
    <vehicle id="161" depart="16.10">
        <route edges="2:0"/>
    </vehicle>
    <vehicle id="166" depart="16.60">
        <route edges="8:2 2:0"/>
    </vehicle>
    <vehicle id="168" depart="16.80">
        <route edges="8:2 2:0 0:1 1:3 3:7"/>
    </vehicle>
    <vehicle id="170" depart="17.00">
        <route edges="0:2 2:8"/>
    </vehicle>
    <vehicle id="173" depart="17.30">
        <route edges="8:2 2:0"/>
    </vehicle>
    <vehicle id="174" depart="17.40">
        <route edges="8:2 2:0"/>
    </vehicle>
    <vehicle id="175" depart="17.50">
        <route edges="9:0 0:1 1:3"/>
    </vehicle>
    <vehicle id="178" depart="17.80">
        <route edges="8:2 2:0 0:1"/>
    </vehicle>
    <vehicle id="179" depart="17.90">
        <route edges="0:2"/>
    </vehicle>
    <vehicle id="180" depart="18.00">
        <route edges="8:2 2:0 0:1 1:3 3:7"/>
    </vehicle>
    <vehicle id="183" depart="18.30">
        <route edges="7:3 3:1 1:0 0:2 2:8"/>
    </vehicle>
    <vehicle id="185" depart="18.50">
        <route edges="6:5 5:1 1:0 0:2"/>
    </vehicle>
    <vehicle id="186" depart="18.60">
        <route edges="8:2 2:0 0:1 1:3"/>
    </vehicle>
    <vehicle id="187" depart="18.70">
        <route edges="2:0 0:1 1:3 3:7"/>
    </vehicle>
    <vehicle id="189" depart="18.90">
        <route edges="2:0"/>
    </vehicle>
    <vehicle id="196" depart="19.60">
        <route edges="7:3 3:1 1:0 0:2 2:8"/>
    </vehicle>
    <vehicle id="199" depart="19.90">
        <route edges="3:1 1:0 0:2 2:8"/>
    </vehicle>
    <vehicle id="200" depart="20.00">
        <route edges="9:0 0:2 2:8"/>
    </vehicle>
    <vehicle id="204" depart="20.40">
        <route edges="8:2 2:0 0:1"/>
    </vehicle>
    <vehicle id="205" depart="20.50">
        <route edges="10:9 9:0 0:1 1:5 5:6"/>
    </vehicle>
    <vehicle id="208" depart="20.80">
        <route edges="1:0 0:9"/>
    </vehicle>
    <vehicle id="209" depart="20.90">
        <route edges="7:3 3:1 1:5"/>
    </vehicle>
    <vehicle id="211" depart="21.10">
        <route edges="8:2 2:0"/>
    </vehicle>
    <vehicle id="214" depart="21.40">
        <route edges="8:2 2:0 0:1 1:3 3:7"/>
    </vehicle>
    <vehicle id="215" depart="21.50">
        <route edges="7:3 3:1 1:0 0:2 2:8"/>
    </vehicle>
    <vehicle id="216" depart="21.60">
        <route edges="5:1 1:0 0:9 9:10"/>
    </vehicle>
    <vehicle id="217" depart="21.70">
        <route edges="6:5 5:1 1:3 3:7"/>
    </vehicle>
    <vehicle id="220" depart="22.00">
        <route edges="2:0 0:1 1:5 5:6"/>
    </vehicle>
    <vehicle id="221" depart="22.10">
        <route edges="5:1 1:0"/>
    </vehicle>
    <vehicle id="222" depart="22.20">
        <route edges="8:2 2:0 0:1 1:3 3:7"/>
    </vehicle>
    <vehicle id="224" depart="22.40">
        <route edges="7:3 3:1"/>
    </vehicle>
    <vehicle id="225" depart="22.50">
        <route edges="6:5 5:1 1:3 3:7"/>
    </vehicle>
    <vehicle id="226" depart="22.60">
        <route edges="7:3 3:1 1:0 0:2 2:8"/>
    </vehicle>
    <vehicle id="228" depart="22.80">
        <route edges="8:2 2:0 0:1 1:3"/>
    </vehicle>
    <vehicle id="230" depart="23.00">
        <route edges="3:1 1:0 0:2 2:8"/>
    </vehicle>
    <vehicle id="231" depart="23.10">
        <route edges="10:9 9:0 0:1 1:5"/>
    </vehicle>
    <vehicle id="235" depart="23.50">
        <route edges="3:1 1:0 0:9 9:10"/>
    </vehicle>
    <vehicle id="236" depart="23.60">
        <route edges="8:2 2:0 0:1 1:3"/>
    </vehicle>
    <vehicle id="239" depart="23.90">
        <route edges="10:9 9:0 0:2 2:8"/>
    </vehicle>
    <vehicle id="241" depart="24.10">
        <route edges="8:2 2:0"/>
    </vehicle>
    <vehicle id="243" depart="24.30">
        <route edges="6:5 5:1"/>
    </vehicle>
    <vehicle id="245" depart="24.50">
        <route edges="1:3 3:7"/>
    </vehicle>
    <vehicle id="249" depart="24.90">
        <route edges="2:0"/>
    </vehicle>
    <vehicle id="251" depart="25.10">
        <route edges="7:3 3:1 1:0 0:9 9:10"/>
    </vehicle>
    <vehicle id="252" depart="25.20">
        <route edges="1:3 3:7"/>
    </vehicle>
    <vehicle id="257" depart="25.70">
        <route edges="6:5 5:1 1:3 3:7"/>
    </vehicle>
    <vehicle id="258" depart="25.80">
        <route edges="8:2 2:0 0:1 1:3 3:7"/>
    </vehicle>
    <vehicle id="263" depart="26.30">
        <route edges="2:0 0:9 9:10"/>
    </vehicle>
    <vehicle id="268" depart="26.80">
        <route edges="3:1 1:0 0:2"/>
    </vehicle>
    <vehicle id="271" depart="27.10">
        <route edges="6:5 5:1 1:0 0:2 2:8"/>
    </vehicle>
    <vehicle id="273" depart="27.30">
        <route edges="8:2 2:0 0:9 9:10"/>
    </vehicle>
    <vehicle id="281" depart="28.10">
        <route edges="10:9 9:0 0:1"/>
    </vehicle>
    <vehicle id="282" depart="28.20">
        <route edges="8:2 2:0 0:1 1:3 3:7"/>
    </vehicle>
    <vehicle id="284" depart="28.40">
        <route edges="7:3 3:1 1:0 0:2 2:8"/>
    </vehicle>
    <vehicle id="285" depart="28.50">
        <route edges="10:9 9:0 0:1 1:5"/>
    </vehicle>
    <vehicle id="286" depart="28.60">
        <route edges="8:2 2:0 0:1"/>
    </vehicle>
    <vehicle id="287" depart="28.70">
        <route edges="8:2 2:0 0:1 1:5 5:6"/>
    </vehicle>
    <vehicle id="289" depart="28.90">
        <route edges="7:3 3:1 1:0 0:2 2:8"/>
    </vehicle>
    <vehicle id="290" depart="29.00">
        <route edges="9:0 0:1 1:5 5:6"/>
    </vehicle>
    <vehicle id="292" depart="29.20">
        <route edges="7:3 3:1 1:0"/>
    </vehicle>
    <vehicle id="293" depart="29.30">
        <route edges="2:0"/>
    </vehicle>
    <vehicle id="294" depart="29.40">
        <route edges="10:9 9:0 0:1 1:5 5:6"/>
    </vehicle>
    <vehicle id="298" depart="29.80">
        <route edges="0:2 2:8"/>
    </vehicle>
    <vehicle id="299" depart="29.90">
        <route edges="6:5 5:1 1:0 0:9"/>
    </vehicle>
    <vehicle id="300" depart="30.00">
        <route edges="8:2 2:0 0:1 1:3 3:7"/>
    </vehicle>
    <vehicle id="301" depart="30.10">
        <route edges="8:2 2:0 0:9 9:10"/>
    </vehicle>
    <vehicle id="302" depart="30.20">
        <route edges="7:3 3:1 1:0 0:2"/>
    </vehicle>
    <vehicle id="303" depart="30.30">
        <route edges="1:0 0:9 9:10"/>
    </vehicle>
    <vehicle id="306" depart="30.60">
        <route edges="2:0 0:1 1:5 5:6"/>
    </vehicle>
    <vehicle id="307" depart="30.70">
        <route edges="1:0 0:9"/>
    </vehicle>
    <vehicle id="310" depart="31.00">
        <route edges="10:9 9:0 0:1 1:3 3:7"/>
    </vehicle>
    <vehicle id="317" depart="31.70">
        <route edges="6:5 5:1 1:3"/>
    </vehicle>
    <vehicle id="319" depart="31.90">
        <route edges="8:2 2:0 0:1 1:5 5:6"/>
    </vehicle>
    <vehicle id="320" depart="32.00">
        <route edges="8:2 2:0 0:1 1:3 3:7"/>
    </vehicle>
    <vehicle id="322" depart="32.20">
        <route edges="6:5 5:1 1:3 3:7"/>
    </vehicle>
    <vehicle id="324" depart="32.40">
        <route edges="10:9 9:0 0:1 1:3 3:7"/>
    </vehicle>
    <vehicle id="325" depart="32.50">
        <route edges="10:9 9:0 0:1 1:3"/>
    </vehicle>
    <vehicle id="327" depart="32.70">
        <route edges="7:3 3:1 1:5"/>
    </vehicle>
    <vehicle id="328" depart="32.80">
        <route edges="7:3 3:1 1:0 0:9 9:10"/>
    </vehicle>
    <vehicle id="329" depart="32.90">
        <route edges="7:3 3:1 1:0 0:2"/>
    </vehicle>
    <vehicle id="331" depart="33.10">
        <route edges="3:1 1:0 0:9"/>
    </vehicle>
    <vehicle id="335" depart="33.50">
        <route edges="10:9 9:0 0:1 1:3"/>
    </vehicle>
    <vehicle id="337" depart="33.70">
        <route edges="9:0 0:1 1:3 3:7"/>
    </vehicle>
    <vehicle id="338" depart="33.80">
        <route edges="7:3 3:1 1:0"/>
    </vehicle>
    <vehicle id="340" depart="34.00">
        <route edges="7:3 3:1 1:0 0:2 2:8"/>
    </vehicle>
    <vehicle id="341" depart="34.10">
        <route edges="8:2 2:0 0:1 1:3 3:7"/>
    </vehicle>
    <vehicle id="342" depart="34.20">
        <route edges="2:0 0:1 1:5"/>
    </vehicle>
    <vehicle id="343" depart="34.30">
        <route edges="7:3 3:1 1:0 0:2"/>
    </vehicle>
    <vehicle id="344" depart="34.40">
        <route edges="8:2 2:0 0:1 1:3 3:7"/>
    </vehicle>
    <vehicle id="346" depart="34.60">
        <route edges="6:5 5:1 1:0 0:9 9:10"/>
    </vehicle>
    <vehicle id="350" depart="35.00">
        <route edges="3:1 1:5"/>
    </vehicle>
    <vehicle id="360" depart="36.00">
        <route edges="3:1 1:0"/>
    </vehicle>
    <vehicle id="362" depart="36.20">
        <route edges="8:2 2:0 0:1 1:3 3:7"/>
    </vehicle>
    <vehicle id="367" depart="36.70">
        <route edges="10:9 9:0 0:1"/>
    </vehicle>
    <vehicle id="370" depart="37.00">
        <route edges="2:0 0:9"/>
    </vehicle>
    <vehicle id="375" depart="37.50">
        <route edges="7:3 3:1 1:0 0:2 2:8"/>
    </vehicle>
    <vehicle id="376" depart="37.60">
        <route edges="8:2 2:0 0:1 1:5 5:6"/>
    </vehicle>
    <vehicle id="378" depart="37.80">
        <route edges="9:0 0:2"/>
    </vehicle>
    <vehicle id="379" depart="37.90">
        <route edges="1:5"/>
    </vehicle>
    <vehicle id="381" depart="38.10">
        <route edges="10:9 9:0 0:1 1:5 5:6"/>
    </vehicle>
    <vehicle id="382" depart="38.20">
        <route edges="8:2 2:0 0:1 1:3 3:7"/>
    </vehicle>
    <vehicle id="383" depart="38.30">
        <route edges="3:1 1:0 0:2"/>
    </vehicle>
    <vehicle id="384" depart="38.40">
        <route edges="9:0 0:1 1:3 3:7"/>
    </vehicle>
    <vehicle id="385" depart="38.50">
        <route edges="8:2 2:0 0:9"/>
    </vehicle>
    <vehicle id="387" depart="38.70">
        <route edges="2:0 0:1 1:5 5:6"/>
    </vehicle>
    <vehicle id="388" depart="38.80">
        <route edges="2:0 0:1"/>
    </vehicle>
    <vehicle id="393" depart="39.30">
        <route edges="8:2 2:0 0:1 1:3 3:7"/>
    </vehicle>
    <vehicle id="394" depart="39.40">
        <route edges="6:5 5:1 1:0 0:9 9:10"/>
    </vehicle>
    <vehicle id="396" depart="39.60">
        <route edges="7:3 3:1 1:0 0:2 2:8"/>
    </vehicle>
    <vehicle id="400" depart="40.00">
        <route edges="7:3 3:1 1:0 0:2"/>
    </vehicle>
    <vehicle id="401" depart="40.10">
        <route edges="3:1"/>
    </vehicle>
    <vehicle id="403" depart="40.30">
        <route edges="6:5 5:1 1:0 0:9"/>
    </vehicle>
    <vehicle id="404" depart="40.40">
        <route edges="3:1 1:0 0:2"/>
    </vehicle>
    <vehicle id="405" depart="40.50">
        <route edges="8:2 2:0 0:1"/>
    </vehicle>
    <vehicle id="406" depart="40.60">
        <route edges="0:9 9:10"/>
    </vehicle>
    <vehicle id="407" depart="40.70">
        <route edges="5:1 1:3"/>
    </vehicle>
    <vehicle id="411" depart="41.10">
        <route edges="7:3 3:1"/>
    </vehicle>
    <vehicle id="420" depart="42.00">
        <route edges="1:0 0:2"/>
    </vehicle>
    <vehicle id="421" depart="42.10">
        <route edges="7:3 3:1 1:0"/>
    </vehicle>
    <vehicle id="423" depart="42.30">
        <route edges="2:0 0:1 1:3 3:7"/>
    </vehicle>
    <vehicle id="424" depart="42.40">
        <route edges="5:1 1:0 0:2 2:8"/>
    </vehicle>
    <vehicle id="425" depart="42.50">
        <route edges="3:1 1:0 0:2 2:8"/>
    </vehicle>
    <vehicle id="426" depart="42.60">
        <route edges="2:0 0:1"/>
    </vehicle>
    <vehicle id="428" depart="42.80">
        <route edges="10:9 9:0 0:1 1:5"/>
    </vehicle>
    <vehicle id="429" depart="42.90">
        <route edges="8:2 2:0 0:1 1:5 5:6"/>
    </vehicle>
    <vehicle id="431" depart="43.10">
        <route edges="8:2 2:0 0:1 1:3"/>
    </vehicle>
    <vehicle id="433" depart="43.30">
        <route edges="7:3 3:1 1:0 0:2 2:8"/>
    </vehicle>
    <vehicle id="436" depart="43.60">
        <route edges="10:9 9:0 0:2 2:8"/>
    </vehicle>
    <vehicle id="437" depart="43.70">
        <route edges="8:2 2:0 0:1 1:3 3:7"/>
    </vehicle>
    <vehicle id="440" depart="44.00">
        <route edges="7:3 3:1 1:0 0:2"/>
    </vehicle>
    <vehicle id="441" depart="44.10">
        <route edges="9:0 0:1 1:3 3:7"/>
    </vehicle>
    <vehicle id="443" depart="44.30">
        <route edges="1:0"/>
    </vehicle>
    <vehicle id="445" depart="44.50">
        <route edges="3:1 1:0"/>
    </vehicle>
    <vehicle id="446" depart="44.60">
        <route edges="7:3 3:1 1:0 0:2 2:8"/>
    </vehicle>
    <vehicle id="449" depart="44.90">
        <route edges="7:3 3:1 1:0 0:2 2:8"/>
    </vehicle>
    <vehicle id="450" depart="45.00">
        <route edges="0:2"/>
    </vehicle>
    <vehicle id="451" depart="45.10">
        <route edges="3:1 1:5 5:6"/>
    </vehicle>
    <vehicle id="453" depart="45.30">
        <route edges="10:9 9:0 0:2 2:8"/>
    </vehicle>
    <vehicle id="454" depart="45.40">
        <route edges="1:0 0:2"/>
    </vehicle>
    <vehicle id="457" depart="45.70">
        <route edges="8:2 2:0 0:1 1:3"/>
    </vehicle>
    <vehicle id="458" depart="45.80">
        <route edges="0:9 9:10"/>
    </vehicle>
    <vehicle id="459" depart="45.90">
        <route edges="7:3 3:1"/>
    </vehicle>
    <vehicle id="461" depart="46.10">
        <route edges="8:2 2:0 0:1 1:3 3:7"/>
    </vehicle>
    <vehicle id="466" depart="46.60">
        <route edges="1:3"/>
    </vehicle>
    <vehicle id="468" depart="46.80">
        <route edges="7:3 3:1"/>
    </vehicle>
    <vehicle id="470" depart="47.00">
        <route edges="10:9 9:0 0:2 2:8"/>
    </vehicle>
    <vehicle id="473" depart="47.30">
        <route edges="3:1 1:5"/>
    </vehicle>
    <vehicle id="474" depart="47.40">
        <route edges="8:2 2:0 0:1 1:3 3:7"/>
    </vehicle>
    <vehicle id="477" depart="47.70">
        <route edges="8:2 2:0 0:1 1:3"/>
    </vehicle>
    <vehicle id="478" depart="47.80">
        <route edges="6:5 5:1 1:0 0:9 9:10"/>
    </vehicle>
    <vehicle id="479" depart="47.90">
        <route edges="1:3 3:7"/>
    </vehicle>
    <vehicle id="482" depart="48.20">
        <route edges="7:3 3:1 1:0 0:9"/>
    </vehicle>
    <vehicle id="484" depart="48.40">
        <route edges="5:1 1:0 0:2"/>
    </vehicle>
    <vehicle id="487" depart="48.70">
        <route edges="10:9 9:0 0:2"/>
    </vehicle>
    <vehicle id="488" depart="48.80">
        <route edges="3:1 1:0 0:9"/>
    </vehicle>
    <vehicle id="494" depart="49.40">
        <route edges="6:5 5:1 1:3"/>
    </vehicle>
    <vehicle id="496" depart="49.60">
        <route edges="7:3 3:1 1:0 0:2 2:8"/>
    </vehicle>
    <vehicle id="498" depart="49.80">
        <route edges="8:2 2:0"/>
    </vehicle>
    <vehicle id="499" depart="49.90">
        <route edges="8:2 2:0 0:9 9:10"/>
    </vehicle>
    <vehicle id="500" depart="50.00">
        <route edges="7:3 3:1 1:0 0:2 2:8"/>
    </vehicle>
    <vehicle id="501" depart="50.10">
        <route edges="8:2 2:0 0:9"/>
    </vehicle>
    <vehicle id="503" depart="50.30">
        <route edges="10:9 9:0 0:1 1:3 3:7"/>
    </vehicle>
    <vehicle id="504" depart="50.40">
        <route edges="1:3 3:7"/>
    </vehicle>
    <vehicle id="506" depart="50.60">
        <route edges="8:2 2:0 0:1 1:3 3:7"/>
    </vehicle>
    <vehicle id="507" depart="50.70">
        <route edges="1:3 3:7"/>
    </vehicle>
    <vehicle id="509" depart="50.90">
        <route edges="9:0 0:2 2:8"/>
    </vehicle>
    <vehicle id="510" depart="51.00">
        <route edges="9:0 0:1 1:3"/>
    </vehicle>
    <vehicle id="511" depart="51.10">
        <route edges="8:2 2:0 0:1 1:3 3:7"/>
    </vehicle>
    <vehicle id="512" depart="51.20">
        <route edges="10:9 9:0 0:2"/>
    </vehicle>
    <vehicle id="515" depart="51.50">
        <route edges="2:0 0:9 9:10"/>
    </vehicle>
    <vehicle id="516" depart="51.60">
        <route edges="8:2 2:0"/>
    </vehicle>
    <vehicle id="517" depart="51.70">
        <route edges="5:1 1:3 3:7"/>
    </vehicle>
    <vehicle id="518" depart="51.80">
        <route edges="10:9 9:0 0:2 2:8"/>
    </vehicle>
    <vehicle id="522" depart="52.20">
        <route edges="7:3 3:1 1:0 0:2"/>
    </vehicle>
    <vehicle id="525" depart="52.50">
        <route edges="7:3 3:1 1:0 0:2 2:8"/>
    </vehicle>
    <vehicle id="526" depart="52.60">
        <route edges="7:3 3:1 1:0 0:2 2:8"/>
    </vehicle>
    <vehicle id="528" depart="52.80">
        <route edges="7:3 3:1 1:0"/>
    </vehicle>
    <vehicle id="530" depart="53.00">
        <route edges="8:2 2:0 0:9 9:10"/>
    </vehicle>
    <vehicle id="532" depart="53.20">
        <route edges="8:2 2:0 0:1 1:3 3:7"/>
    </vehicle>
    <vehicle id="533" depart="53.30">
        <route edges="5:1 1:0 0:2"/>
    </vehicle>
    <vehicle id="534" depart="53.40">
        <route edges="3:1"/>
    </vehicle>
    <vehicle id="535" depart="53.50">
        <route edges="0:2 2:8"/>
    </vehicle>
    <vehicle id="536" depart="53.60">
        <route edges="1:3 3:7"/>
    </vehicle>
    <vehicle id="539" depart="53.90">
        <route edges="0:1 1:3"/>
    </vehicle>
    <vehicle id="543" depart="54.30">
        <route edges="6:5 5:1 1:0 0:2 2:8"/>
    </vehicle>
    <vehicle id="547" depart="54.70">
        <route edges="10:9 9:0 0:2 2:8"/>
    </vehicle>
    <vehicle id="548" depart="54.80">
        <route edges="10:9 9:0 0:1 1:3"/>
    </vehicle>
    <vehicle id="549" depart="54.90">
        <route edges="7:3 3:1 1:0 0:2"/>
    </vehicle>
    <vehicle id="551" depart="55.10">
        <route edges="10:9 9:0 0:2 2:8"/>
    </vehicle>
    <vehicle id="553" depart="55.30">
        <route edges="8:2 2:0 0:1 1:3"/>
    </vehicle>
    <vehicle id="554" depart="55.40">
        <route edges="2:0 0:1 1:3 3:7"/>
    </vehicle>
    <vehicle id="556" depart="55.60">
        <route edges="2:0 0:1 1:3 3:7"/>
    </vehicle>
    <vehicle id="557" depart="55.70">
        <route edges="1:3"/>
    </vehicle>
    <vehicle id="563" depart="56.30">
        <route edges="1:0 0:2 2:8"/>
    </vehicle>
    <vehicle id="565" depart="56.50">
        <route edges="7:3 3:1 1:0 0:2 2:8"/>
    </vehicle>
    <vehicle id="566" depart="56.60">
        <route edges="9:0 0:2"/>
    </vehicle>
    <vehicle id="567" depart="56.70">
        <route edges="10:9 9:0 0:1 1:3 3:7"/>
    </vehicle>
    <vehicle id="568" depart="56.80">
        <route edges="9:0"/>
    </vehicle>
    <vehicle id="571" depart="57.10">
        <route edges="7:3 3:1"/>
    </vehicle>
    <vehicle id="572" depart="57.20">
        <route edges="8:2 2:0 0:1 1:3"/>
    </vehicle>
    <vehicle id="573" depart="57.30">
        <route edges="8:2 2:0 0:1 1:3 3:7"/>
    </vehicle>
    <vehicle id="576" depart="57.60">
        <route edges="3:1 1:5"/>
    </vehicle>
    <vehicle id="577" depart="57.70">
        <route edges="3:1 1:0 0:2"/>
    </vehicle>
    <vehicle id="579" depart="57.90">
        <route edges="2:0 0:1 1:3 3:7"/>
    </vehicle>
    <vehicle id="580" depart="58.00">
        <route edges="7:3 3:1 1:0 0:2"/>
    </vehicle>
    <vehicle id="581" depart="58.10">
        <route edges="9:0 0:2"/>
    </vehicle>
    <vehicle id="582" depart="58.20">
        <route edges="5:1"/>
    </vehicle>
    <vehicle id="583" depart="58.30">
        <route edges="6:5 5:1 1:3"/>
    </vehicle>
    <vehicle id="584" depart="58.40">
        <route edges="8:2 2:0 0:1 1:5 5:6"/>
    </vehicle>
    <vehicle id="585" depart="58.50">
        <route edges="2:0 0:9 9:10"/>
    </vehicle>
    <vehicle id="586" depart="58.60">
        <route edges="10:9 9:0 0:1 1:3 3:7"/>
    </vehicle>
    <vehicle id="587" depart="58.70">
        <route edges="8:2 2:0 0:1 1:3 3:7"/>
    </vehicle>
    <vehicle id="590" depart="59.00">
        <route edges="7:3 3:1 1:0 0:2 2:8"/>
    </vehicle>
    <vehicle id="591" depart="59.10">
        <route edges="8:2 2:0 0:9"/>
    </vehicle>
    <vehicle id="596" depart="59.60">
        <route edges="3:1 1:0 0:2 2:8"/>
    </vehicle>
    <vehicle id="598" depart="59.80">
        <route edges="1:3 3:7"/>
    </vehicle>
    <vehicle id="601" depart="60.10">
        <route edges="8:2 2:0 0:1 1:3 3:7"/>
    </vehicle>
    <vehicle id="602" depart="60.20">
        <route edges="7:3 3:1 1:0 0:2"/>
    </vehicle>
    <vehicle id="603" depart="60.30">
        <route edges="7:3 3:1 1:0 0:2"/>
    </vehicle>
    <vehicle id="604" depart="60.40">
        <route edges="1:3 3:7"/>
    </vehicle>
    <vehicle id="606" depart="60.60">
        <route edges="7:3 3:1 1:0 0:2"/>
    </vehicle>
    <vehicle id="609" depart="60.90">
        <route edges="10:9 9:0 0:1 1:3 3:7"/>
    </vehicle>
    <vehicle id="613" depart="61.30">
        <route edges="7:3 3:1 1:0 0:2 2:8"/>
    </vehicle>
    <vehicle id="614" depart="61.40">
        <route edges="7:3 3:1 1:0 0:2"/>
    </vehicle>
    <vehicle id="615" depart="61.50">
        <route edges="6:5 5:1 1:0 0:2 2:8"/>
    </vehicle>
    <vehicle id="616" depart="61.60">
        <route edges="7:3 3:1 1:0 0:2 2:8"/>
    </vehicle>
    <vehicle id="619" depart="61.90">
        <route edges="3:1 1:0 0:9 9:10"/>
    </vehicle>
    <vehicle id="621" depart="62.10">
        <route edges="0:2 2:8"/>
    </vehicle>
    <vehicle id="623" depart="62.30">
        <route edges="7:3 3:1"/>
    </vehicle>
    <vehicle id="624" depart="62.40">
        <route edges="8:2 2:0"/>
    </vehicle>
    <vehicle id="625" depart="62.50">
        <route edges="7:3 3:1 1:0 0:2 2:8"/>
    </vehicle>
    <vehicle id="626" depart="62.60">
        <route edges="7:3 3:1"/>
    </vehicle>
    <vehicle id="629" depart="62.90">
        <route edges="8:2 2:0 0:9 9:10"/>
    </vehicle>
    <vehicle id="632" depart="63.20">
        <route edges="3:1 1:5 5:6"/>
    </vehicle>
    <vehicle id="633" depart="63.30">
        <route edges="8:2 2:0 0:1 1:3 3:7"/>
    </vehicle>
    <vehicle id="635" depart="63.50">
        <route edges="2:0 0:1 1:3 3:7"/>
    </vehicle>
    <vehicle id="636" depart="63.60">
        <route edges="7:3 3:1 1:0 0:2 2:8"/>
    </vehicle>
    <vehicle id="643" depart="64.30">
        <route edges="5:1 1:3"/>
    </vehicle>