<?xml version="1.0" encoding="UTF-8"?>

<!-- generated on Thu Feb 13 14:14:49 2014 by SUMO duarouter Version 0.18.0
<?xml version="1.0" encoding="UTF-8"?>

<configuration xmlns:xsi="http://www.w3.org/2001/XMLSchema-instance" xsi:noNamespaceSchemaLocation="http://sumo.sf.net/xsd/duarouterConfiguration.xsd">

    <input>
        <net-file value="twinT.net.xml"/>
        <trip-files value="experimentos/twinT.p0.1.7.trips.xml"/>
    </input>

    <output>
        <output-file value="experimentos/twinT.p0.1.7.rou.xml"/>
    </output>

    <processing>
        <ignore-errors value="true"/>
    </processing>

    <random_number>
        <random value="true"/>
    </random_number>

</configuration>
-->

<routes xmlns:xsi="http://www.w3.org/2001/XMLSchema-instance" xsi:noNamespaceSchemaLocation="http://sumo.sf.net/xsd/routes_file.xsd">
    <vehicle id="0" depart="0.00">
        <route edges="9:0 0:2"/>
    </vehicle>
    <vehicle id="2" depart="0.20">
        <route edges="7:3 3:1 1:0 0:2 2:8"/>
    </vehicle>
    <vehicle id="4" depart="0.40">
        <route edges="7:3 3:1 1:0 0:2 2:8"/>
    </vehicle>
    <vehicle id="6" depart="0.60">
        <route edges="2:0"/>
    </vehicle>
    <vehicle id="7" depart="0.70">
        <route edges="3:1"/>
    </vehicle>
    <vehicle id="8" depart="0.80">
        <route edges="0:1 1:3 3:7"/>
    </vehicle>
    <vehicle id="10" depart="1.00">
        <route edges="6:5 5:1 1:0 0:9 9:10"/>
    </vehicle>
    <vehicle id="16" depart="1.60">
        <route edges="9:0 0:1 1:3"/>
    </vehicle>
    <vehicle id="19" depart="1.90">
        <route edges="8:2 2:0 0:1 1:3 3:7"/>
    </vehicle>
    <vehicle id="20" depart="2.00">
        <route edges="7:3 3:1 1:0 0:9 9:10"/>
    </vehicle>
    <vehicle id="22" depart="2.20">
        <route edges="1:3"/>
    </vehicle>
    <vehicle id="24" depart="2.40">
        <route edges="7:3 3:1 1:0 0:2 2:8"/>
    </vehicle>
    <vehicle id="25" depart="2.50">
        <route edges="2:0 0:1 1:3 3:7"/>
    </vehicle>
    <vehicle id="26" depart="2.60">
        <route edges="1:3 3:7"/>
    </vehicle>
    <vehicle id="29" depart="2.90">
        <route edges="8:2 2:0"/>
    </vehicle>
    <vehicle id="31" depart="3.10">
        <route edges="10:9 9:0 0:2 2:8"/>
    </vehicle>
    <vehicle id="32" depart="3.20">
        <route edges="7:3 3:1 1:5"/>
    </vehicle>
    <vehicle id="36" depart="3.60">
        <route edges="1:3"/>
    </vehicle>
    <vehicle id="37" depart="3.70">
        <route edges="8:2 2:0 0:1 1:5 5:6"/>
    </vehicle>
    <vehicle id="38" depart="3.80">
        <route edges="3:1 1:0 0:2 2:8"/>
    </vehicle>
    <vehicle id="39" depart="3.90">
        <route edges="7:3 3:1 1:0 0:9"/>
    </vehicle>
    <vehicle id="42" depart="4.20">
        <route edges="3:1 1:0 0:9"/>
    </vehicle>
    <vehicle id="43" depart="4.30">
        <route edges="7:3 3:1 1:5"/>
    </vehicle>
    <vehicle id="44" depart="4.40">
        <route edges="7:3 3:1 1:5 5:6"/>
    </vehicle>
    <vehicle id="50" depart="5.00">
        <route edges="8:2 2:0 0:1 1:5"/>
    </vehicle>
    <vehicle id="52" depart="5.20">
        <route edges="2:0 0:1 1:3"/>
    </vehicle>
    <vehicle id="54" depart="5.40">
        <route edges="1:0"/>
    </vehicle>
    <vehicle id="55" depart="5.50">
        <route edges="8:2 2:0 0:1 1:5 5:6"/>
    </vehicle>
    <vehicle id="56" depart="5.60">
        <route edges="7:3 3:1 1:0 0:2"/>
    </vehicle>
    <vehicle id="57" depart="5.70">
        <route edges="7:3 3:1"/>
    </vehicle>
    <vehicle id="58" depart="5.80">
        <route edges="6:5 5:1 1:3 3:7"/>
    </vehicle>
    <vehicle id="59" depart="5.90">
        <route edges="3:1 1:5 5:6"/>
    </vehicle>
    <vehicle id="61" depart="6.10">
        <route edges="7:3 3:1 1:0 0:2 2:8"/>
    </vehicle>
    <vehicle id="63" depart="6.30">
        <route edges="8:2 2:0 0:1"/>
    </vehicle>
    <vehicle id="70" depart="7.00">
        <route edges="0:2 2:8"/>
    </vehicle>
    <vehicle id="71" depart="7.10">
        <route edges="2:0 0:1 1:5"/>
    </vehicle>
    <vehicle id="74" depart="7.40">
        <route edges="8:2 2:0 0:1 1:3 3:7"/>
    </vehicle>
    <vehicle id="75" depart="7.50">
        <route edges="6:5 5:1 1:3 3:7"/>
    </vehicle>
    <vehicle id="78" depart="7.80">
        <route edges="3:1 1:5 5:6"/>
    </vehicle>
    <vehicle id="79" depart="7.90">
        <route edges="3:1 1:0 0:2 2:8"/>
    </vehicle>
    <vehicle id="83" depart="8.30">
        <route edges="8:2 2:0 0:1 1:3"/>
    </vehicle>
    <vehicle id="85" depart="8.50">
        <route edges="7:3 3:1 1:0 0:9 9:10"/>
    </vehicle>
    <vehicle id="87" depart="8.70">
        <route edges="0:1 1:5 5:6"/>
    </vehicle>
    <vehicle id="88" depart="8.80">
        <route edges="8:2 2:0 0:9 9:10"/>
    </vehicle>
    <vehicle id="91" depart="9.10">
        <route edges="8:2 2:0 0:1 1:3"/>
    </vehicle>
    <vehicle id="92" depart="9.20">
        <route edges="10:9 9:0 0:2"/>
    </vehicle>
    <vehicle id="93" depart="9.30">
        <route edges="1:3"/>
    </vehicle>
    <vehicle id="94" depart="9.40">
        <route edges="2:0"/>
    </vehicle>
    <vehicle id="97" depart="9.70">
        <route edges="0:2 2:8"/>
    </vehicle>
    <vehicle id="98" depart="9.80">
        <route edges="7:3 3:1 1:0 0:9"/>
    </vehicle>
    <vehicle id="99" depart="9.90">
        <route edges="5:1 1:3 3:7"/>
    </vehicle>
    <vehicle id="100" depart="10.00">
        <route edges="10:9 9:0 0:1 1:3 3:7"/>
    </vehicle>
    <vehicle id="103" depart="10.30">
        <route edges="7:3 3:1"/>
    </vehicle>
    <vehicle id="107" depart="10.70">
        <route edges="0:1 1:3 3:7"/>
    </vehicle>
    <vehicle id="108" depart="10.80">
        <route edges="0:1 1:3 3:7"/>
    </vehicle>
    <vehicle id="109" depart="10.90">
        <route edges="10:9 9:0 0:1 1:3 3:7"/>
    </vehicle>
    <vehicle id="110" depart="11.00">
        <route edges="7:3 3:1 1:0 0:2 2:8"/>
    </vehicle>
    <vehicle id="111" depart="11.10">
        <route edges="6:5 5:1 1:3 3:7"/>
    </vehicle>
    <vehicle id="112" depart="11.20">
        <route edges="3:1 1:0 0:2 2:8"/>
    </vehicle>
    <vehicle id="113" depart="11.30">
        <route edges="6:5 5:1 1:3"/>
    </vehicle>
    <vehicle id="117" depart="11.70">
        <route edges="6:5 5:1 1:3 3:7"/>
    </vehicle>
    <vehicle id="118" depart="11.80">
        <route edges="3:1"/>
    </vehicle>
    <vehicle id="119" depart="11.90">
        <route edges="9:0 0:2"/>
    </vehicle>
    <vehicle id="122" depart="12.20">
        <route edges="1:5 5:6"/>
    </vehicle>
    <vehicle id="123" depart="12.30">
        <route edges="0:2 2:8"/>
    </vehicle>
    <vehicle id="124" depart="12.40">
        <route edges="8:2 2:0 0:1 1:3 3:7"/>
    </vehicle>
    <vehicle id="125" depart="12.50">
        <route edges="7:3 3:1 1:5"/>
    </vehicle>
    <vehicle id="127" depart="12.70">
        <route edges="1:5 5:6"/>
    </vehicle>
    <vehicle id="131" depart="13.10">
        <route edges="3:1 1:0 0:2"/>
    </vehicle>
    <vehicle id="134" depart="13.40">
        <route edges="6:5 5:1 1:3 3:7"/>
    </vehicle>
    <vehicle id="135" depart="13.50">
        <route edges="1:0 0:2 2:8"/>
    </vehicle>
    <vehicle id="136" depart="13.60">
        <route edges="1:0 0:2"/>
    </vehicle>
    <vehicle id="141" depart="14.10">
        <route edges="2:0 0:9"/>
    </vehicle>
    <vehicle id="142" depart="14.20">
        <route edges="1:5"/>
    </vehicle>
    <vehicle id="143" depart="14.30">
        <route edges="1:3"/>
    </vehicle>
    <vehicle id="149" depart="14.90">
        <route edges="10:9 9:0 0:1 1:3 3:7"/>
    </vehicle>
    <vehicle id="150" depart="15.00">
        <route edges="0:1 1:3"/>
    </vehicle>
    <vehicle id="152" depart="15.20">
        <route edges="7:3 3:1 1:0 0:9"/>
    </vehicle>
    <vehicle id="158" depart="15.80">
        <route edges="7:3 3:1 1:0 0:2"/>
    </vehicle>
    <vehicle id="159" depart="15.90">
        <route edges="5:1 1:0 0:2 2:8"/>
    </vehicle>
    <vehicle id="160" depart="16.00">
        <route edges="7:3 3:1 1:0 0:9 9:10"/>
    </vehicle>
    <vehicle id="161" depart="16.10">
        <route edges="6:5 5:1 1:0"/>
    </vehicle>
    <vehicle id="162" depart="16.20">
        <route edges="5:1 1:0 0:2 2:8"/>
    </vehicle>
    <vehicle id="163" depart="16.30">
        <route edges="10:9 9:0 0:2 2:8"/>
    </vehicle>
    <vehicle id="165" depart="16.50">
        <route edges="8:2 2:0 0:1 1:3"/>
    </vehicle>
    <vehicle id="166" depart="16.60">
        <route edges="7:3 3:1 1:0 0:9 9:10"/>
    </vehicle>
    <vehicle id="169" depart="16.90">
        <route edges="3:1 1:0 0:9"/>
    </vehicle>
    <vehicle id="171" depart="17.10">
        <route edges="8:2 2:0 0:9"/>
    </vehicle>
    <vehicle id="172" depart="17.20">
        <route edges="8:2 2:0"/>
    </vehicle>
    <vehicle id="174" depart="17.40">
        <route edges="9:0 0:1 1:3"/>
    </vehicle>
    <vehicle id="175" depart="17.50">
        <route edges="3:1 1:0 0:2"/>
    </vehicle>
    <vehicle id="176" depart="17.60">
        <route edges="10:9 9:0 0:1 1:3 3:7"/>
    </vehicle>
    <vehicle id="181" depart="18.10">
        <route edges="1:3 3:7"/>
    </vehicle>
    <vehicle id="186" depart="18.60">
        <route edges="7:3 3:1 1:5 5:6"/>
    </vehicle>
    <vehicle id="187" depart="18.70">
        <route edges="10:9 9:0 0:2 2:8"/>
    </vehicle>
    <vehicle id="188" depart="18.80">
        <route edges="8:2 2:0 0:9 9:10"/>
    </vehicle>
    <vehicle id="190" depart="19.00">
        <route edges="1:3"/>
    </vehicle>
    <vehicle id="192" depart="19.20">
        <route edges="6:5 5:1 1:0 0:2 2:8"/>
    </vehicle>
    <vehicle id="193" depart="19.30">
        <route edges="7:3 3:1 1:0 0:2 2:8"/>
    </vehicle>
    <vehicle id="197" depart="19.70">
        <route edges="7:3 3:1 1:5 5:6"/>
    </vehicle>
    <vehicle id="200" depart="20.00">
        <route edges="8:2 2:0"/>
    </vehicle>
    <vehicle id="202" depart="20.20">
        <route edges="0:1"/>
    </vehicle>
    <vehicle id="205" depart="20.50">
        <route edges="7:3 3:1 1:5 5:6"/>
    </vehicle>
    <vehicle id="207" depart="20.70">
        <route edges="2:0 0:1 1:5"/>
    </vehicle>
    <vehicle id="210" depart="21.00">
        <route edges="8:2 2:0 0:1 1:5 5:6"/>
    </vehicle>
    <vehicle id="216" depart="21.60">
        <route edges="8:2 2:0 0:1 1:3 3:7"/>
    </vehicle>
    <vehicle id="218" depart="21.80">
        <route edges="8:2 2:0 0:1 1:3"/>
    </vehicle>
    <vehicle id="219" depart="21.90">
        <route edges="2:0 0:1 1:3 3:7"/>
    </vehicle>
    <vehicle id="223" depart="22.30">
        <route edges="3:1 1:0 0:9"/>
    </vehicle>
    <vehicle id="227" depart="22.70">
        <route edges="7:3 3:1 1:5"/>
    </vehicle>
    <vehicle id="229" depart="22.90">
        <route edges="3:1 1:0 0:9"/>
    </vehicle>
    <vehicle id="230" depart="23.00">
        <route edges="7:3 3:1 1:0 0:9 9:10"/>
    </vehicle>
    <vehicle id="231" depart="23.10">
        <route edges="7:3 3:1 1:0 0:9"/>
    </vehicle>
    <vehicle id="232" depart="23.20">
        <route edges="1:0 0:9 9:10"/>
    </vehicle>
    <vehicle id="233" depart="23.30">
        <route edges="10:9 9:0 0:1 1:3 3:7"/>
    </vehicle>
    <vehicle id="235" depart="23.50">
        <route edges="1:0 0:2 2:8"/>
    </vehicle>
    <vehicle id="237" depart="23.70">
        <route edges="8:2 2:0 0:1 1:5"/>
    </vehicle>
    <vehicle id="238" depart="23.80">
        <route edges="2:0 0:1"/>
    </vehicle>
    <vehicle id="239" depart="23.90">
        <route edges="1:3 3:7"/>
    </vehicle>
    <vehicle id="241" depart="24.10">
        <route edges="8:2 2:0 0:1 1:5 5:6"/>
    </vehicle>
    <vehicle id="243" depart="24.30">
        <route edges="9:0 0:1 1:3"/>
    </vehicle>
    <vehicle id="244" depart="24.40">
        <route edges="5:1 1:3 3:7"/>
    </vehicle>
    <vehicle id="245" depart="24.50">
        <route edges="2:0 0:1 1:3"/>
    </vehicle>
    <vehicle id="247" depart="24.70">
        <route edges="1:3 3:7"/>
    </vehicle>
    <vehicle id="248" depart="24.80">
        <route edges="1:0 0:2 2:8"/>
    </vehicle>
    <vehicle id="251" depart="25.10">
        <route edges="10:9 9:0 0:1 1:5 5:6"/>
    </vehicle>
    <vehicle id="253" depart="25.30">
        <route edges="8:2 2:0 0:1 1:3 3:7"/>
    </vehicle>
    <vehicle id="257" depart="25.70">
        <route edges="7:3 3:1 1:0 0:2 2:8"/>
    </vehicle>
    <vehicle id="258" depart="25.80">
        <route edges="2:0 0:1 1:3"/>
    </vehicle>
    <vehicle id="261" depart="26.10">
        <route edges="5:1 1:0 0:2 2:8"/>
    </vehicle>
    <vehicle id="263" depart="26.30">
        <route edges="8:2 2:0 0:1 1:3 3:7"/>
    </vehicle>
    <vehicle id="264" depart="26.40">
        <route edges="7:3 3:1 1:5"/>
    </vehicle>
    <vehicle id="265" depart="26.50">
        <route edges="3:1 1:5"/>
    </vehicle>
    <vehicle id="266" depart="26.60">
        <route edges="3:1"/>
    </vehicle>
    <vehicle id="271" depart="27.10">
        <route edges="1:3 3:7"/>
    </vehicle>
    <vehicle id="272" depart="27.20">
        <route edges="8:2 2:0 0:1 1:3"/>
    </vehicle>
    <vehicle id="275" depart="27.50">
        <route edges="6:5 5:1 1:0 0:9 9:10"/>
    </vehicle>
    <vehicle id="276" depart="27.60">
        <route edges="2:0 0:1"/>
    </vehicle>
    <vehicle id="277" depart="27.70">
        <route edges="7:3 3:1 1:5 5:6"/>
    </vehicle>
    <vehicle id="278" depart="27.80">
        <route edges="7:3 3:1 1:5"/>
    </vehicle>
    <vehicle id="279" depart="27.90">
        <route edges="9:0 0:1 1:3 3:7"/>
    </vehicle>
    <vehicle id="282" depart="28.20">
        <route edges="8:2 2:0 0:1 1:3 3:7"/>
    </vehicle>
    <vehicle id="286" depart="28.60">
        <route edges="0:2"/>
    </vehicle>
    <vehicle id="288" depart="28.80">
        <route edges="6:5 5:1 1:3"/>
    </vehicle>
    <vehicle id="289" depart="28.90">
        <route edges="5:1 1:3 3:7"/>
    </vehicle>
    <vehicle id="292" depart="29.20">
        <route edges="8:2 2:0"/>
    </vehicle>
    <vehicle id="294" depart="29.40">
        <route edges="2:0 0:1 1:5 5:6"/>
    </vehicle>
    <vehicle id="295" depart="29.50">
        <route edges="8:2 2:0 0:1 1:3 3:7"/>
    </vehicle>
    <vehicle id="300" depart="30.00">
        <route edges="1:3 3:7"/>
    </vehicle>
    <vehicle id="302" depart="30.20">
        <route edges="2:0 0:9"/>
    </vehicle>
    <vehicle id="309" depart="30.90">
        <route edges="1:0 0:9 9:10"/>
    </vehicle>
    <vehicle id="310" depart="31.00">
        <route edges="8:2 2:0 0:9 9:10"/>
    </vehicle>
    <vehicle id="312" depart="31.20">
        <route edges="6:5 5:1 1:3 3:7"/>
    </vehicle>
    <vehicle id="313" depart="31.30">
        <route edges="7:3 3:1 1:0 0:2 2:8"/>
    </vehicle>
    <vehicle id="316" depart="31.60">
        <route edges="7:3 3:1 1:0 0:9 9:10"/>
    </vehicle>
    <vehicle id="318" depart="31.80">
        <route edges="7:3 3:1 1:0 0:9"/>
    </vehicle>
    <vehicle id="319" depart="31.90">
        <route edges="10:9 9:0 0:2 2:8"/>
    </vehicle>
    <vehicle id="321" depart="32.10">
        <route edges="9:0 0:1 1:5 5:6"/>
    </vehicle>
    <vehicle id="323" depart="32.30">
        <route edges="7:3 3:1 1:0"/>
    </vehicle>
    <vehicle id="325" depart="32.50">
        <route edges="0:1 1:3 3:7"/>
    </vehicle>
    <vehicle id="327" depart="32.70">
        <route edges="8:2 2:0 0:1"/>
    </vehicle>
    <vehicle id="329" depart="32.90">
        <route edges="9:0 0:2 2:8"/>
    </vehicle>
    <vehicle id="332" depart="33.20">
        <route edges="8:2 2:0 0:9 9:10"/>
    </vehicle>
    <vehicle id="333" depart="33.30">
        <route edges="2:0 0:9"/>
    </vehicle>
    <vehicle id="334" depart="33.40">
        <route edges="7:3 3:1 1:5"/>
    </vehicle>
    <vehicle id="335" depart="33.50">
        <route edges="6:5 5:1 1:3 3:7"/>
    </vehicle>
    <vehicle id="336" depart="33.60">
        <route edges="3:1"/>
    </vehicle>
    <vehicle id="338" depart="33.80">
        <route edges="0:2 2:8"/>
    </vehicle>
    <vehicle id="343" depart="34.30">
        <route edges="8:2 2:0 0:1 1:5 5:6"/>
    </vehicle>
    <vehicle id="344" depart="34.40">
        <route edges="2:0 0:1 1:3 3:7"/>
    </vehicle>
    <vehicle id="345" depart="34.50">
        <route edges="3:1 1:0"/>
    </vehicle>
    <vehicle id="347" depart="34.70">
        <route edges="9:0 0:1 1:3"/>
    </vehicle>
    <vehicle id="348" depart="34.80">
        <route edges="6:5 5:1 1:0 0:2"/>
    </vehicle>
    <vehicle id="350" depart="35.00">
        <route edges="7:3 3:1 1:0 0:2"/>
    </vehicle>
    <vehicle id="351" depart="35.10">
        <route edges="0:2 2:8"/>
    </vehicle>
    <vehicle id="353" depart="35.30">
        <route edges="8:2 2:0 0:1 1:3 3:7"/>
    </vehicle>
    <vehicle id="355" depart="35.50">
        <route edges="8:2 2:0 0:1 1:3 3:7"/>
    </vehicle>
    <vehicle id="359" depart="35.90">
        <route edges="1:3"/>
    </vehicle>
    <vehicle id="361" depart="36.10">
        <route edges="10:9 9:0 0:1 1:5 5:6"/>
    </vehicle>
    <vehicle id="363" depart="36.30">
        <route edges="0:9 9:10"/>
    </vehicle>
    <vehicle id="364" depart="36.40">
        <route edges="7:3 3:1 1:0 0:9 9:10"/>
    </vehicle>
    <vehicle id="365" depart="36.50">
        <route edges="8:2 2:0 0:1 1:3 3:7"/>
    </vehicle>
    <vehicle id="366" depart="36.60">
        <route edges="7:3 3:1 1:0 0:2"/>
    </vehicle>
    <vehicle id="368" depart="36.80">
        <route edges="8:2 2:0 0:9 9:10"/>
    </vehicle>
    <vehicle id="370" depart="37.00">
        <route edges="7:3 3:1"/>
    </vehicle>
    <vehicle id="372" depart="37.20">
        <route edges="7:3 3:1 1:0 0:2 2:8"/>
    </vehicle>
    <vehicle id="373" depart="37.30">
        <route edges="1:0 0:2 2:8"/>
    </vehicle>
    <vehicle id="376" depart="37.60">
        <route edges="7:3 3:1 1:0 0:2 2:8"/>
    </vehicle>
    <vehicle id="377" depart="37.70">
        <route edges="6:5 5:1 1:0 0:2"/>
    </vehicle>
    <vehicle id="378" depart="37.80">
        <route edges="8:2 2:0 0:1 1:5 5:6"/>
    </vehicle>
    <vehicle id="381" depart="38.10">
        <route edges="7:3 3:1 1:5"/>
    </vehicle>
    <vehicle id="382" depart="38.20">
        <route edges="9:0 0:1"/>
    </vehicle>
    <vehicle id="384" depart="38.40">
        <route edges="8:2 2:0 0:1 1:5"/>
    </vehicle>
    <vehicle id="385" depart="38.50">
        <route edges="7:3 3:1 1:5"/>
    </vehicle>
    <vehicle id="387" depart="38.70">
        <route edges="3:1 1:5 5:6"/>
    </vehicle>
    <vehicle id="389" depart="38.90">
        <route edges="8:2 2:0 0:1 1:3 3:7"/>
    </vehicle>
    <vehicle id="392" depart="39.20">
        <route edges="10:9 9:0 0:1 1:5"/>
    </vehicle>
    <vehicle id="394" depart="39.40">
        <route edges="10:9 9:0 0:1 1:3 3:7"/>
    </vehicle>
    <vehicle id="395" depart="39.50">
        <route edges="10:9 9:0 0:1 1:3"/>
    </vehicle>
    <vehicle id="398" depart="39.80">
        <route edges="6:5 5:1 1:3 3:7"/>
    </vehicle>
    <vehicle id="401" depart="40.10">
        <route edges="7:3 3:1 1:0 0:9 9:10"/>
    </vehicle>
    <vehicle id="403" depart="40.30">
        <route edges="8:2 2:0 0:1"/>
    </vehicle>
    <vehicle id="406" depart="40.60">
        <route edges="10:9 9:0 0:1 1:5 5:6"/>
    </vehicle>
    <vehicle id="407" depart="40.70">
        <route edges="8:2 2:0 0:9"/>
    </vehicle>
    <vehicle id="409" depart="40.90">
        <route edges="8:2 2:0"/>
    </vehicle>
    <vehicle id="410" depart="41.00">
        <route edges="7:3 3:1 1:5 5:6"/>
    </vehicle>
    <vehicle id="411" depart="41.10">
        <route edges="3:1 1:0 0:2"/>
    </vehicle>
    <vehicle id="413" depart="41.30">
        <route edges="10:9 9:0 0:1 1:3 3:7"/>
    </vehicle>
    <vehicle id="415" depart="41.50">
        <route edges="8:2 2:0 0:1 1:5 5:6"/>
    </vehicle>
    <vehicle id="416" depart="41.60">
        <route edges="7:3 3:1"/>
    </vehicle>
    <vehicle id="418" depart="41.80">
        <route edges="8:2 2:0 0:9 9:10"/>
    </vehicle>
    <vehicle id="422" depart="42.20">
        <route edges="3:1 1:0 0:2 2:8"/>
    </vehicle>
    <vehicle id="423" depart="42.30">
        <route edges="10:9 9:0 0:1"/>
    </vehicle>
    <vehicle id="424" depart="42.40">
        <route edges="5:1"/>
    </vehicle>
    <vehicle id="425" depart="42.50">
        <route edges="0:9 9:10"/>
    </vehicle>
    <vehicle id="426" depart="42.60">
        <route edges="8:2 2:0 0:1 1:3"/>
    </vehicle>
    <vehicle id="427" depart="42.70">
        <route edges="10:9 9:0 0:1 1:3"/>
    </vehicle>
    <vehicle id="429" depart="42.90">
        <route edges="8:2 2:0 0:1 1:5"/>
    </vehicle>
    <vehicle id="430" depart="43.00">
        <route edges="0:2 2:8"/>
    </vehicle>
    <vehicle id="434" depart="43.40">
        <route edges="3:1 1:0 0:2"/>
    </vehicle>
    <vehicle id="435" depart="43.50">
        <route edges="6:5 5:1 1:3 3:7"/>
    </vehicle>
    <vehicle id="436" depart="43.60">
        <route edges="1:5 5:6"/>
    </vehicle>
    <vehicle id="440" depart="44.00">
        <route edges="6:5 5:1 1:0 0:2 2:8"/>
    </vehicle>
    <vehicle id="441" depart="44.10">
        <route edges="5:1 1:0 0:2 2:8"/>
    </vehicle>
    <vehicle id="442" depart="44.20">
        <route edges="7:3 3:1 1:0 0:2 2:8"/>
    </vehicle>
    <vehicle id="443" depart="44.30">
        <route edges="1:5 5:6"/>
    </vehicle>
    <vehicle id="445" depart="44.50">
        <route edges="8:2 2:0 0:1 1:3"/>
    </vehicle>
    <vehicle id="446" depart="44.60">
        <route edges="8:2 2:0 0:9"/>
    </vehicle>
    <vehicle id="447" depart="44.70">
        <route edges="0:1 1:5 5:6"/>
    </vehicle>
    <vehicle id="448" depart="44.80">
        <route edges="2:0 0:1 1:3 3:7"/>
    </vehicle>
    <vehicle id="454" depart="45.40">
        <route edges="0:2"/>
    </vehicle>
    <vehicle id="455" depart="45.50">
        <route edges="7:3 3:1 1:0 0:2 2:8"/>
    </vehicle>
    <vehicle id="457" depart="45.70">
        <route edges="1:3 3:7"/>
    </vehicle>
    <vehicle id="460" depart="46.00">
        <route edges="1:0 0:2"/>
    </vehicle>
    <vehicle id="461" depart="46.10">
        <route edges="9:0 0:1 1:3"/>
    </vehicle>
    <vehicle id="463" depart="46.30">
        <route edges="7:3 3:1 1:0 0:9"/>
    </vehicle>
    <vehicle id="464" depart="46.40">
        <route edges="5:1 1:3"/>
    </vehicle>
    <vehicle id="465" depart="46.50">
        <route edges="9:0 0:2 2:8"/>
    </vehicle>
    <vehicle id="467" depart="46.70">
        <route edges="7:3 3:1 1:5 5:6"/>
    </vehicle>
    <vehicle id="468" depart="46.80">
        <route edges="7:3 3:1 1:0 0:9 9:10"/>
    </vehicle>
    <vehicle id="471" depart="47.10">
        <route edges="6:5 5:1 1:0 0:2"/>
    </vehicle>
    <vehicle id="472" depart="47.20">
        <route edges="1:5 5:6"/>
    </vehicle>
    <vehicle id="473" depart="47.30">
        <route edges="7:3 3:1"/>
    </vehicle>
    <vehicle id="474" depart="47.40">
        <route edges="7:3 3:1 1:0 0:9 9:10"/>
    </vehicle>
    <vehicle id="475" depart="47.50">
        <route edges="8:2 2:0 0:9 9:10"/>
    </vehicle>
    <vehicle id="478" depart="47.80">
        <route edges="0:1 1:3 3:7"/>
    </vehicle>
    <vehicle id="479" depart="47.90">
        <route edges="8:2 2:0 0:1"/>
    </vehicle>
    <vehicle id="480" depart="48.00">
        <route edges="8:2 2:0 0:1"/>
    </vehicle>
    <vehicle id="484" depart="48.40">
        <route edges="8:2 2:0 0:1 1:3"/>
    </vehicle>
    <vehicle id="488" depart="48.80">
        <route edges="7:3 3:1 1:0 0:9 9:10"/>
    </vehicle>
    <vehicle id="489" depart="48.90">
        <route edges="2:0 0:1"/>
    </vehicle>
    <vehicle id="491" depart="49.10">
        <route edges="2:0 0:9"/>
    </vehicle>
    <vehicle id="494" depart="49.40">
        <route edges="0:2 2:8"/>
    </vehicle>
    <vehicle id="495" depart="49.50">
        <route edges="8:2 2:0 0:1 1:3 3:7"/>
    </vehicle>
    <vehicle id="499" depart="49.90">
        <route edges="8:2 2:0 0:1 1:3"/>
    </vehicle>
    <vehicle id="500" depart="50.00">
        <route edges="9:0 0:1 1:3"/>
    </vehicle>
    <vehicle id="501" depart="50.10">
        <route edges="2:0"/>
    </vehicle>
    <vehicle id="504" depart="50.40">
        <route edges="3:1"/>
    </vehicle>
    <vehicle id="505" depart="50.50">
        <route edges="8:2 2:0 0:1 1:5 5:6"/>
    </vehicle>
    <vehicle id="506" depart="50.60">
        <route edges="7:3 3:1 1:0 0:9 9:10"/>
    </vehicle>
    <vehicle id="508" depart="50.80">
        <route edges="8:2 2:0"/>
    </vehicle>
    <vehicle id="509" depart="50.90">
        <route edges="2:0"/>
    </vehicle>
    <vehicle id="510" depart="51.00">
        <route edges="0:9"/>
    </vehicle>
    <vehicle id="513" depart="51.30">
        <route edges="3:1 1:0 0:2 2:8"/>
    </vehicle>
    <vehicle id="514" depart="51.40">
        <route edges="1:3"/>
    </vehicle>
    <vehicle id="518" depart="51.80">
        <route edges="8:2 2:0"/>
    </vehicle>
    <vehicle id="520" depart="52.00">
        <route edges="0:1 1:3 3:7"/>
    </vehicle>
    <vehicle id="521" depart="52.10">
        <route edges="8:2 2:0 0:1 1:5"/>
    </vehicle>
    <vehicle id="524" depart="52.40">
        <route edges="1:3 3:7"/>
    </vehicle>
    <vehicle id="528" depart="52.80">
        <route edges="7:3 3:1 1:0 0:2 2:8"/>
    </vehicle>
    <vehicle id="530" depart="53.00">
        <route edges="8:2 2:0 0:9 9:10"/>
    </vehicle>
    <vehicle id="531" depart="53.10">
        <route edges="1:3 3:7"/>
    </vehicle>
    <vehicle id="534" depart="53.40">
        <route edges="2:0 0:9"/>
    </vehicle>
    <vehicle id="536" depart="53.60">
        <route edges="7:3 3:1 1:0 0:9"/>
    </vehicle>
    <vehicle id="537" depart="53.70">
        <route edges="1:0 0:9 9:10"/>
    </vehicle>
    <vehicle id="538" depart="53.80">
        <route edges="9:0 0:1 1:5 5:6"/>
    </vehicle>
    <vehicle id="540" depart="54.00">
        <route edges="7:3 3:1 1:0"/>
    </vehicle>
    <vehicle id="541" depart="54.10">
        <route edges="7:3 3:1 1:0 0:2"/>
    </vehicle>
    <vehicle id="542" depart="54.20">
        <route edges="3:1 1:0 0:2"/>
    </vehicle>
    <vehicle id="543" depart="54.30">
        <route edges="6:5 5:1 1:0 0:9 9:10"/>
    </vehicle>
    <vehicle id="545" depart="54.50">
        <route edges="2:0 0:1 1:3 3:7"/>
    </vehicle>
    <vehicle id="548" depart="54.80">
        <route edges="8:2 2:0"/>
    </vehicle>
    <vehicle id="550" depart="55.00">
        <route edges="9:0"/>
    </vehicle>
    <vehicle id="552" depart="55.20">
        <route edges="7:3 3:1 1:0 0:9 9:10"/>
    </vehicle>
    <vehicle id="556" depart="55.60">
        <route edges="8:2 2:0 0:1 1:3 3:7"/>
    </vehicle>
    <vehicle id="558" depart="55.80">
        <route edges="3:1 1:5 5:6"/>
    </vehicle>
    <vehicle id="559" depart="55.90">
        <route edges="7:3 3:1 1:0 0:2"/>
    </vehicle>
    <vehicle id="561" depart="56.10">
        <route edges="8:2 2:0 0:1 1:3 3:7"/>
    </vehicle>
    <vehicle id="562" depart="56.20">
        <route edges="7:3 3:1 1:0 0:2"/>
    </vehicle>
    <vehicle id="563" depart="56.30">
        <route edges="1:3 3:7"/>
    </vehicle>
    <vehicle id="568" depart="56.80">
        <route edges="2:0 0:1 1:3 3:7"/>
    </vehicle>
    <vehicle id="570" depart="57.00">
        <route edges="6:5 5:1 1:3 3:7"/>
    </vehicle>
    <vehicle id="572" depart="57.20">
        <route edges="6:5 5:1 1:3"/>
    </vehicle>
    <vehicle id="573" depart="57.30">
        <route edges="3:1 1:0 0:2"/>
    </vehicle>
    <vehicle id="574" depart="57.40">
        <route edges="3:1"/>
    </vehicle>
    <vehicle id="577" depart="57.70">
        <route edges="6:5 5:1 1:0 0:2 2:8"/>
    </vehicle>
    <vehicle id="580" depart="58.00">
        <route edges="6:5 5:1 1:0 0:2"/>
    </vehicle>
    <vehicle id="583" depart="58.30">
        <route edges="6:5 5:1 1:0 0:2 2:8"/>
    </vehicle>
    <vehicle id="584" depart="58.40">
        <route edges="1:0"/>
    </vehicle>
    <vehicle id="585" depart="58.50">
        <route edges="7:3 3:1 1:0 0:2"/>
    </vehicle>
    <vehicle id="592" depart="59.20">
        <route edges="10:9 9:0 0:2 2:8"/>
    </vehicle>
    <vehicle id="593" depart="59.30">
        <route edges="8:2 2:0 0:1"/>
    </vehicle>
    <vehicle id="595" depart="59.50">
        <route edges="9:0"/>
    </vehicle>
    <vehicle id="596" depart="59.60">
        <route edges="10:9 9:0 0:1"/>
    </vehicle>
    <vehicle id="597" depart="59.70">
        <route edges="2:0 0:1 1:3 3:7"/>
    </vehicle>
    <vehicle id="598" depart="59.80">
        <route edges="5:1 1:0 0:2 2:8"/>
    </vehicle>
    <vehicle id="599" depart="59.90">
        <route edges="2:0 0:9 9:10"/>
    </vehicle>
    <vehicle id="600" depart="60.00">
        <route edges="5:1 1:3"/>
    </vehicle>
    <vehicle id="602" depart="60.20">
        <route edges="10:9 9:0"/>
    </vehicle>
    <vehicle id="604" depart="60.40">
        <route edges="8:2 2:0 0:1 1:3 3:7"/>
    </vehicle>
    <vehicle id="605" depart="60.50">
        <route edges="3:1 1:0 0:2"/>
    </vehicle>
    <vehicle id="606" depart="60.60">
        <route edges="3:1 1:5"/>
    </vehicle>
    <vehicle id="608" depart="60.80">
        <route edges="1:3"/>
    </vehicle>
    <vehicle id="610" depart="61.00">
        <route edges="5:1 1:3"/>
    </vehicle>
    <vehicle id="612" depart="61.20">
        <route edges="9:0 0:1 1:5 5:6"/>
    </vehicle>
    <vehicle id="613" depart="61.30">
        <route edges="9:0 0:2 2:8"/>
    </vehicle>
    <vehicle id="614" depart="61.40">
        <route edges="8:2 2:0 0:1 1:3 3:7"/>
    </vehicle>
    <vehicle id="616" depart="61.60">
        <route edges="8:2 2:0 0:1 1:5 5:6"/>
    </vehicle>
    <vehicle id="617" depart="61.70">
        <route edges="7:3 3:1 1:0 0:2 2:8"/>
    </vehicle>
    <vehicle id="620" depart="62.00">