<?xml version="1.0" encoding="UTF-8"?>

<!-- generated on Thu Feb 13 14:16:38 2014 by SUMO duarouter Version 0.18.0
<?xml version="1.0" encoding="UTF-8"?>

<configuration xmlns:xsi="http://www.w3.org/2001/XMLSchema-instance" xsi:noNamespaceSchemaLocation="http://sumo.sf.net/xsd/duarouterConfiguration.xsd">

    <input>
        <net-file value="twinT.net.xml"/>
        <trip-files value="experimentos/twinT.p1.0.9.trips.xml"/>
    </input>

    <output>
        <output-file value="experimentos/twinT.p1.0.9.rou.xml"/>
    </output>

    <processing>
        <ignore-errors value="true"/>
    </processing>

    <random_number>
        <random value="true"/>
    </random_number>

</configuration>
-->

<routes xmlns:xsi="http://www.w3.org/2001/XMLSchema-instance" xsi:noNamespaceSchemaLocation="http://sumo.sf.net/xsd/routes_file.xsd">
    <vehicle id="0" depart="0.00">
        <route edges="6:5 5:1 1:0 0:2 2:8"/>
    </vehicle>
    <vehicle id="2" depart="2.00">
        <route edges="10:9 9:0 0:1 1:3 3:7"/>
    </vehicle>
    <vehicle id="3" depart="3.00">
        <route edges="3:1 1:0 0:9 9:10"/>
    </vehicle>
    <vehicle id="5" depart="5.00">
        <route edges="10:9 9:0 0:2"/>
    </vehicle>
    <vehicle id="7" depart="7.00">
        <route edges="7:3 3:1 1:0 0:2 2:8"/>
    </vehicle>
    <vehicle id="8" depart="8.00">
        <route edges="5:1 1:3 3:7"/>
    </vehicle>
    <vehicle id="9" depart="9.00">
        <route edges="10:9 9:0 0:1 1:5 5:6"/>
    </vehicle>
    <vehicle id="10" depart="10.00">
        <route edges="8:2 2:0"/>
    </vehicle>
    <vehicle id="13" depart="13.00">
        <route edges="8:2 2:0"/>
    </vehicle>
    <vehicle id="14" depart="14.00">
        <route edges="3:1 1:0 0:2 2:8"/>
    </vehicle>
    <vehicle id="22" depart="22.00">
        <route edges="2:0 0:1 1:3 3:7"/>
    </vehicle>
    <vehicle id="26" depart="26.00">
        <route edges="8:2 2:0 0:1"/>
    </vehicle>
    <vehicle id="27" depart="27.00">
        <route edges="7:3 3:1 1:0 0:2"/>
    </vehicle>
    <vehicle id="32" depart="32.00">
        <route edges="8:2 2:0 0:1 1:3 3:7"/>
    </vehicle>
    <vehicle id="37" depart="37.00">
        <route edges="1:3 3:7"/>
    </vehicle>
    <vehicle id="43" depart="43.00">
        <route edges="7:3 3:1 1:0 0:2 2:8"/>
    </vehicle>
    <vehicle id="44" depart="44.00">
        <route edges="2:0 0:1 1:3 3:7"/>
    </vehicle>
    <vehicle id="45" depart="45.00">
        <route edges="3:1"/>
    </vehicle>
    <vehicle id="47" depart="47.00">
        <route edges="0:2 2:8"/>
    </vehicle>
    <vehicle id="48" depart="48.00">
        <route edges="7:3 3:1 1:5"/>
    </vehicle>
    <vehicle id="49" depart="49.00">
        <route edges="1:0 0:2 2:8"/>
    </vehicle>
    <vehicle id="50" depart="50.00">
        <route edges="9:0 0:2"/>
    </vehicle>
    <vehicle id="51" depart="51.00">
        <route edges="8:2 2:0 0:1 1:3 3:7"/>
    </vehicle>
    <vehicle id="53" depart="53.00">
        <route edges="10:9 9:0 0:2"/>
    </vehicle>
    <vehicle id="54" depart="54.00">
        <route edges="8:2 2:0 0:1 1:3 3:7"/>
    </vehicle>
    <vehicle id="55" depart="55.00">
        <route edges="2:0 0:1 1:5 5:6"/>
    </vehicle>
    <vehicle id="56" depart="56.00">
        <route edges="8:2 2:0"/>
    </vehicle>
    <vehicle id="61" depart="61.00">
        <route edges="7:3 3:1 1:0 0:2 2:8"/>
    </vehicle>
    <vehicle id="62" depart="62.00">
        <route edges="8:2 2:0 0:1 1:5 5:6"/>
    </vehicle>
    <vehicle id="63" depart="63.00">
        <route edges="3:1 1:0"/>
    </vehicle>
    <vehicle id="67" depart="67.00">
        <route edges="7:3 3:1 1:0"/>
    </vehicle>
    <vehicle id="70" depart="70.00">
        <route edges="3:1 1:0 0:2 2:8"/>
    </vehicle>
    <vehicle id="72" depart="72.00">
        <route edges="5:1 1:0 0:9 9:10"/>
    </vehicle>
    <vehicle id="73" depart="73.00">
        <route edges="3:1"/>
    </vehicle>
    <vehicle id="75" depart="75.00">
        <route edges="2:0 0:1 1:3 3:7"/>
    </vehicle>
    <vehicle id="76" depart="76.00">
        <route edges="3:1 1:5 5:6"/>
    </vehicle>
    <vehicle id="80" depart="80.00">
        <route edges="7:3 3:1 1:5 5:6"/>
    </vehicle>
    <vehicle id="82" depart="82.00">
        <route edges="3:1"/>
    </vehicle>
    <vehicle id="84" depart="84.00">
        <route edges="10:9 9:0 0:1 1:5 5:6"/>
    </vehicle>
    <vehicle id="86" depart="86.00">
        <route edges="10:9 9:0 0:1 1:5 5:6"/>
    </vehicle>
    <vehicle id="87" depart="87.00">
        <route edges="7:3 3:1 1:0 0:2 2:8"/>
    </vehicle>
    <vehicle id="88" depart="88.00">
        <route edges="1:3 3:7"/>
    </vehicle>
    <vehicle id="89" depart="89.00">
        <route edges="6:5 5:1 1:0 0:9 9:10"/>
    </vehicle>
    <vehicle id="90" depart="90.00">
        <route edges="5:1 1:0 0:2 2:8"/>
    </vehicle>
    <vehicle id="93" depart="93.00">
        <route edges="7:3 3:1 1:0 0:9 9:10"/>
    </vehicle>
    <vehicle id="95" depart="95.00">
        <route edges="5:1 1:0 0:2"/>
    </vehicle>
    <vehicle id="97" depart="97.00">
        <route edges="0:1 1:3 3:7"/>
    </vehicle>
    <vehicle id="98" depart="98.00">
        <route edges="1:3"/>
    </vehicle>
    <vehicle id="102" depart="102.00">
        <route edges="7:3 3:1 1:0"/>
    </vehicle>
    <vehicle id="104" depart="104.00">
        <route edges="5:1 1:3 3:7"/>
    </vehicle>
    <vehicle id="107" depart="107.00">
        <route edges="8:2 2:0 0:1"/>
    </vehicle>
    <vehicle id="110" depart="110.00">
        <route edges="7:3 3:1 1:0 0:2 2:8"/>
    </vehicle>
    <vehicle id="111" depart="111.00">
        <route edges="10:9 9:0 0:1 1:3 3:7"/>
    </vehicle>
    <vehicle id="112" depart="112.00">
        <route edges="2:0 0:1 1:3 3:7"/>
    </vehicle>
    <vehicle id="113" depart="113.00">
        <route edges="8:2 2:0 0:1 1:5 5:6"/>
    </vehicle>
    <vehicle id="114" depart="114.00">
        <route edges="10:9 9:0 0:1 1:5"/>
    </vehicle>
    <vehicle id="116" depart="116.00">
        <route edges="7:3 3:1 1:0"/>
    </vehicle>
    <vehicle id="117" depart="117.00">
        <route edges="6:5 5:1 1:0 0:9"/>
    </vehicle>
    <vehicle id="122" depart="122.00">
        <route edges="2:0"/>
    </vehicle>
    <vehicle id="123" depart="123.00">
        <route edges="0:1 1:5 5:6"/>
    </vehicle>
    <vehicle id="124" depart="124.00">
        <route edges="0:1"/>
    </vehicle>
    <vehicle id="127" depart="127.00">
        <route edges="7:3 3:1 1:0 0:2 2:8"/>
    </vehicle>
    <vehicle id="130" depart="130.00">
        <route edges="3:1 1:0 0:9 9:10"/>
    </vehicle>
    <vehicle id="131" depart="131.00">
        <route edges="6:5 5:1 1:3"/>
    </vehicle>
    <vehicle id="132" depart="132.00">
        <route edges="7:3 3:1 1:0 0:2"/>
    </vehicle>
    <vehicle id="133" depart="133.00">
        <route edges="8:2 2:0 0:1 1:5 5:6"/>
    </vehicle>
    <vehicle id="134" depart="134.00">
        <route edges="8:2 2:0 0:1 1:3 3:7"/>
    </vehicle>
    <vehicle id="137" depart="137.00">
        <route edges="10:9 9:0 0:1 1:3 3:7"/>
    </vehicle>
    <vehicle id="139" depart="139.00">
        <route edges="3:1 1:0 0:2 2:8"/>
    </vehicle>
    <vehicle id="143" depart="143.00">
        <route edges="7:3 3:1 1:0 0:9 9:10"/>
    </vehicle>
    <vehicle id="144" depart="144.00">
        <route edges="0:2 2:8"/>
    </vehicle>
    <vehicle id="145" depart="145.00">
        <route edges="2:0 0:1 1:5 5:6"/>
    </vehicle>
    <vehicle id="146" depart="146.00">
        <route edges="7:3 3:1 1:0 0:9"/>
    </vehicle>
    <vehicle id="152" depart="152.00">
        <route edges="10:9 9:0 0:2 2:8"/>
    </vehicle>
    <vehicle id="155" depart="155.00">
        <route edges="0:2"/>
    </vehicle>
    <vehicle id="156" depart="156.00">
        <route edges="8:2 2:0 0:9 9:10"/>
    </vehicle>
    <vehicle id="158" depart="158.00">
        <route edges="1:3 3:7"/>
    </vehicle>
    <vehicle id="160" depart="160.00">
        <route edges="10:9 9:0 0:1 1:5"/>
    </vehicle>
    <vehicle id="161" depart="161.00">
        <route edges="8:2 2:0 0:1 1:3 3:7"/>
    </vehicle>
    <vehicle id="162" depart="162.00">
        <route edges="8:2 2:0 0:1 1:3"/>
    </vehicle>
    <vehicle id="163" depart="163.00">
        <route edges="6:5 5:1 1:0 0:2 2:8"/>
    </vehicle>
    <vehicle id="165" depart="165.00">
        <route edges="2:0"/>
    </vehicle>
    <vehicle id="166" depart="166.00">
        <route edges="3:1"/>
    </vehicle>
    <vehicle id="170" depart="170.00">
        <route edges="7:3 3:1 1:0"/>
    </vehicle>
    <vehicle id="171" depart="171.00">
        <route edges="3:1 1:5 5:6"/>
    </vehicle>
    <vehicle id="173" depart="173.00">
        <route edges="6:5 5:1 1:3"/>
    </vehicle>
    <vehicle id="175" depart="175.00">
        <route edges="2:0"/>
    </vehicle>
    <vehicle id="177" depart="177.00">
        <route edges="0:9"/>
    </vehicle>
    <vehicle id="179" depart="179.00">
        <route edges="7:3 3:1"/>
    </vehicle>
    <vehicle id="180" depart="180.00">
        <route edges="9:0 0:2 2:8"/>
    </vehicle>
    <vehicle id="186" depart="186.00">
        <route edges="10:9 9:0 0:1 1:5"/>
    </vehicle>
    <vehicle id="187" depart="187.00">
        <route edges="7:3 3:1"/>
    </vehicle>
    <vehicle id="188" depart="188.00">
        <route edges="10:9 9:0 0:1 1:3"/>
    </vehicle>
    <vehicle id="191" depart="191.00">
        <route edges="7:3 3:1 1:0 0:2 2:8"/>
    </vehicle>
    <vehicle id="192" depart="192.00">
        <route edges="8:2 2:0 0:1 1:3"/>
    </vehicle>
    <vehicle id="193" depart="193.00">
        <route edges="8:2 2:0 0:1 1:3 3:7"/>
    </vehicle>
    <vehicle id="197" depart="197.00">
        <route edges="1:0 0:2"/>
    </vehicle>
    <vehicle id="198" depart="198.00">
        <route edges="0:1 1:5"/>
    </vehicle>
    <vehicle id="201" depart="201.00">
        <route edges="3:1 1:5 5:6"/>
    </vehicle>
    <vehicle id="203" depart="203.00">
        <route edges="1:3"/>
    </vehicle>
    <vehicle id="204" depart="204.00">
        <route edges="7:3 3:1"/>
    </vehicle>
    <vehicle id="205" depart="205.00">
        <route edges="6:5 5:1 1:3 3:7"/>
    </vehicle>
    <vehicle id="206" depart="206.00">
        <route edges="0:1 1:3"/>
    </vehicle>
    <vehicle id="208" depart="208.00">
        <route edges="7:3 3:1 1:0 0:2 2:8"/>
    </vehicle>
    <vehicle id="210" depart="210.00">
        <route edges="8:2 2:0 0:1 1:5 5:6"/>
    </vehicle>
    <vehicle id="213" depart="213.00">
        <route edges="3:1 1:5"/>
    </vehicle>
    <vehicle id="218" depart="218.00">
        <route edges="7:3 3:1 1:0 0:9"/>
    </vehicle>
    <vehicle id="219" depart="219.00">
        <route edges="5:1 1:3 3:7"/>
    </vehicle>
    <vehicle id="222" depart="222.00">
        <route edges="7:3 3:1 1:0 0:2 2:8"/>
    </vehicle>
    <vehicle id="223" depart="223.00">
        <route edges="10:9 9:0 0:1 1:3 3:7"/>
    </vehicle>
    <vehicle id="224" depart="224.00">
        <route edges="6:5 5:1 1:3 3:7"/>
    </vehicle>
    <vehicle id="227" depart="227.00">
        <route edges="7:3 3:1 1:5 5:6"/>
    </vehicle>
    <vehicle id="229" depart="229.00">
        <route edges="7:3 3:1"/>
    </vehicle>
    <vehicle id="231" depart="231.00">
        <route edges="10:9 9:0 0:1 1:5 5:6"/>
    </vehicle>
    <vehicle id="238" depart="238.00">
        <route edges="8:2 2:0 0:1 1:3 3:7"/>
    </vehicle>
    <vehicle id="239" depart="239.00">
        <route edges="3:1 1:0 0:9"/>
    </vehicle>
    <vehicle id="243" depart="243.00">
        <route edges="8:2 2:0 0:1"/>
    </vehicle>
    <vehicle id="244" depart="244.00">
        <route edges="5:1 1:3"/>
    </vehicle>
    <vehicle id="246" depart="246.00">
        <route edges="0:2"/>
    </vehicle>
    <vehicle id="247" depart="247.00">
        <route edges="2:0 0:1"/>
    </vehicle>
    <vehicle id="252" depart="252.00">
        <route edges="6:5 5:1 1:0 0:2 2:8"/>
    </vehicle>
    <vehicle id="253" depart="253.00">
        <route edges="0:1 1:5 5:6"/>
    </vehicle>
    <vehicle id="254" depart="254.00">
        <route edges="7:3 3:1 1:0 0:9"/>
    </vehicle>
    <vehicle id="257" depart="257.00">
        <route edges="6:5 5:1 1:0 0:2 2:8"/>
    </vehicle>
    <vehicle id="264" depart="264.00">
        <route edges="1:3 3:7"/>
    </vehicle>
    <vehicle id="265" depart="265.00">
        <route edges="0:1 1:3"/>
    </vehicle>
    <vehicle id="267" depart="267.00">
        <route edges="1:0 0:9 9:10"/>
    </vehicle>
    <vehicle id="268" depart="268.00">
        <route edges="7:3 3:1 1:0 0:2"/>
    </vehicle>
    <vehicle id="269" depart="269.00">
        <route edges="10:9 9:0 0:1 1:3 3:7"/>
    </vehicle>
    <vehicle id="275" depart="275.00">
        <route edges="8:2 2:0 0:1 1:3"/>
    </vehicle>
    <vehicle id="280" depart="280.00">
        <route edges="8:2 2:0 0:9 9:10"/>
    </vehicle>
    <vehicle id="283" depart="283.00">
        <route edges="8:2 2:0 0:9"/>
    </vehicle>
    <vehicle id="284" depart="284.00">
        <route edges="6:5 5:1 1:3 3:7"/>
    </vehicle>
    <vehicle id="285" depart="285.00">
        <route edges="8:2 2:0"/>
    </vehicle>
    <vehicle id="287" depart="287.00">
        <route edges="3:1 1:0 0:2"/>
    </vehicle>
    <vehicle id="288" depart="288.00">
        <route edges="9:0 0:1 1:3 3:7"/>
    </vehicle>
    <vehicle id="289" depart="289.00">
        <route edges="8:2 2:0 0:1 1:3 3:7"/>
    </vehicle>
    <vehicle id="291" depart="291.00">
        <route edges="3:1 1:0 0:2"/>
    </vehicle>
    <vehicle id="292" depart="292.00">
        <route edges="10:9 9:0 0:1 1:3 3:7"/>
    </vehicle>
    <vehicle id="293" depart="293.00">
        <route edges="7:3 3:1 1:5 5:6"/>
    </vehicle>
    <vehicle id="296" depart="296.00">
        <route edges="8:2 2:0 0:1 1:3 3:7"/>
    </vehicle>
    <vehicle id="299" depart="299.00">
        <route edges="7:3 3:1 1:0 0:9"/>
    </vehicle>
    <vehicle id="302" depart="302.00">
        <route edges="6:5 5:1 1:0 0:9 9:10"/>
    </vehicle>
    <vehicle id="304" depart="304.00">
        <route edges="2:0 0:9 9:10"/>
    </vehicle>
    <vehicle id="305" depart="305.00">
        <route edges="8:2 2:0"/>
    </vehicle>
    <vehicle id="306" depart="306.00">
        <route edges="7:3 3:1 1:0 0:2"/>
    </vehicle>
    <vehicle id="307" depart="307.00">
        <route edges="6:5 5:1 1:0 0:2"/>
    </vehicle>
    <vehicle id="308" depart="308.00">
        <route edges="7:3 3:1 1:0 0:9"/>
    </vehicle>
    <vehicle id="314" depart="314.00">
        <route edges="1:0 0:2 2:8"/>
    </vehicle>
    <vehicle id="316" depart="316.00">
        <route edges="8:2 2:0 0:1 1:5 5:6"/>
    </vehicle>
    <vehicle id="317" depart="317.00">
        <route edges="6:5 5:1 1:3 3:7"/>
    </vehicle>
    <vehicle id="318" depart="318.00">
        <route edges="7:3 3:1 1:5 5:6"/>
    </vehicle>
    <vehicle id="319" depart="319.00">
        <route edges="7:3 3:1 1:5 5:6"/>
    </vehicle>
    <vehicle id="324" depart="324.00">
        <route edges="10:9 9:0 0:2"/>
    </vehicle>
    <vehicle id="327" depart="327.00">
        <route edges="10:9 9:0 0:2 2:8"/>
    </vehicle>
    <vehicle id="329" depart="329.00">
        <route edges="8:2 2:0 0:1 1:3 3:7"/>
    </vehicle>
    <vehicle id="331" depart="331.00">
        <route edges="7:3 3:1 1:0 0:9 9:10"/>
    </vehicle>
    <vehicle id="335" depart="335.00">
        <route edges="5:1 1:3 3:7"/>
    </vehicle>
    <vehicle id="336" depart="336.00">
        <route edges="8:2 2:0 0:1 1:3"/>
    </vehicle>
    <vehicle id="338" depart="338.00">
        <route edges="10:9 9:0 0:1 1:5 5:6"/>
    </vehicle>
    <vehicle id="339" depart="339.00">
        <route edges="0:2 2:8"/>
    </vehicle>
    <vehicle id="341" depart="341.00">
        <route edges="9:0"/>
    </vehicle>
    <vehicle id="343" depart="343.00">
        <route edges="1:0 0:2 2:8"/>
    </vehicle>
    <vehicle id="347" depart="347.00">
        <route edges="10:9 9:0 0:2 2:8"/>
    </vehicle>
    <vehicle id="351" depart="351.00">
        <route edges="9:0 0:2 2:8"/>
    </vehicle>
    <vehicle id="352" depart="352.00">
        <route edges="8:2 2:0 0:1 1:3 3:7"/>
    </vehicle>
    <vehicle id="355" depart="355.00">
        <route edges="8:2 2:0 0:1 1:3 3:7"/>
    </vehicle>
    <vehicle id="356" depart="356.00">
        <route edges="7:3 3:1 1:0 0:2 2:8"/>
    </vehicle>
    <vehicle id="359" depart="359.00">
        <route edges="7:3 3:1"/>
    </vehicle>
    <vehicle id="361" depart="361.00">
        <route edges="7:3 3:1 1:0 0:2 2:8"/>
    </vehicle>
    <vehicle id="362" depart="362.00">
        <route edges="6:5 5:1 1:0 0:2 2:8"/>
    </vehicle>
    <vehicle id="364" depart="364.00">
        <route edges="10:9 9:0 0:1 1:3 3:7"/>
    </vehicle>
    <vehicle id="366" depart="366.00">
        <route edges="7:3 3:1 1:5 5:6"/>
    </vehicle>
    <vehicle id="367" depart="367.00">
        <route edges="6:5 5:1 1:0 0:9"/>
    </vehicle>
    <vehicle id="371" depart="371.00">
        <route edges="1:0"/>
    </vehicle>
    <vehicle id="372" depart="372.00">
        <route edges="10:9 9:0 0:1 1:5"/>
    </vehicle>
    <vehicle id="373" depart="373.00">
        <route edges="10:9 9:0 0:1 1:5 5:6"/>
    </vehicle>
    <vehicle id="376" depart="376.00">
        <route edges="1:3 3:7"/>
    </vehicle>
    <vehicle id="377" depart="377.00">
        <route edges="8:2 2:0 0:1 1:5 5:6"/>
    </vehicle>
    <vehicle id="378" depart="378.00">
        <route edges="8:2 2:0 0:1 1:5 5:6"/>
    </vehicle>
    <vehicle id="380" depart="380.00">
        <route edges="0:2 2:8"/>
    </vehicle>
    <vehicle id="381" depart="381.00">
        <route edges="1:0 0:2 2:8"/>
    </vehicle>
    <vehicle id="385" depart="385.00">
        <route edges="2:0 0:1 1:3 3:7"/>
    </vehicle>
    <vehicle id="390" depart="390.00">
        <route edges="2:0 0:9"/>
    </vehicle>
    <vehicle id="394" depart="394.00">
        <route edges="8:2 2:0 0:1 1:3 3:7"/>
    </vehicle>
    <vehicle id="395" depart="395.00">
        <route edges="5:1 1:0 0:9"/>
    </vehicle>
    <vehicle id="396" depart="396.00">
        <route edges="8:2 2:0 0:1 1:3"/>
    </vehicle>
    <vehicle id="400" depart="400.00">
        <route edges="6:5 5:1 1:0"/>
    </vehicle>
    <vehicle id="401" depart="401.00">
        <route edges="6:5 5:1 1:3"/>
    </vehicle>
    <vehicle id="406" depart="406.00">
        <route edges="2:0"/>
    </vehicle>
    <vehicle id="413" depart="413.00">
        <route edges="7:3 3:1 1:0 0:2 2:8"/>
    </vehicle>
    <vehicle id="414" depart="414.00">
        <route edges="6:5 5:1 1:3"/>
    </vehicle>
    <vehicle id="416" depart="416.00">
        <route edges="2:0 0:1 1:5 5:6"/>
    </vehicle>
    <vehicle id="417" depart="417.00">
        <route edges="8:2 2:0 0:1 1:3 3:7"/>
    </vehicle>
    <vehicle id="419" depart="419.00">
        <route edges="7:3 3:1 1:0 0:2 2:8"/>
    </vehicle>
    <vehicle id="422" depart="422.00">
        <route edges="7:3 3:1 1:0 0:2"/>
    </vehicle>
    <vehicle id="423" depart="423.00">
        <route edges="5:1"/>
    </vehicle>
    <vehicle id="424" depart="424.00">
        <route edges="7:3 3:1 1:0"/>
    </vehicle>
    <vehicle id="426" depart="426.00">
        <route edges="0:1 1:5 5:6"/>
    </vehicle>
    <vehicle id="427" depart="427.00">
        <route edges="2:0 0:9 9:10"/>
    </vehicle>
    <vehicle id="428" depart="428.00">
        <route edges="1:3 3:7"/>
    </vehicle>
    <vehicle id="429" depart="429.00">
        <route edges="9:0 0:1 1:3"/>
    </vehicle>
    <vehicle id="430" depart="430.00">
        <route edges="10:9 9:0 0:2 2:8"/>
    </vehicle>
    <vehicle id="437" depart="437.00">
        <route edges="3:1"/>
    </vehicle>
    <vehicle id="441" depart="441.00">
        <route edges="8:2 2:0 0:1 1:3"/>
    </vehicle>
    <vehicle id="442" depart="442.00">
        <route edges="0:2 2:8"/>
    </vehicle>
    <vehicle id="444" depart="444.00">
        <route edges="10:9 9:0 0:1 1:3"/>
    </vehicle>
    <vehicle id="445" depart="445.00">
        <route edges="6:5 5:1 1:3"/>
    </vehicle>
    <vehicle id="447" depart="447.00">
        <route edges="5:1 1:3"/>
    </vehicle>
    <vehicle id="448" depart="448.00">
        <route edges="8:2 2:0 0:1 1:5 5:6"/>
    </vehicle>
    <vehicle id="449" depart="449.00">
        <route edges="3:1 1:0 0:9 9:10"/>
    </vehicle>
    <vehicle id="451" depart="451.00">
        <route edges="2:0 0:1 1:5"/>
    </vehicle>
    <vehicle id="454" depart="454.00">
        <route edges="6:5 5:1 1:0 0:2"/>
    </vehicle>
    <vehicle id="456" depart="456.00">
        <route edges="2:0 0:1 1:5"/>
    </vehicle>
    <vehicle id="458" depart="458.00">
        <route edges="0:2 2:8"/>
    </vehicle>
    <vehicle id="459" depart="459.00">
        <route edges="8:2 2:0 0:1 1:5 5:6"/>
    </vehicle>
    <vehicle id="460" depart="460.00">
        <route edges="6:5 5:1 1:0 0:2 2:8"/>
    </vehicle>
    <vehicle id="461" depart="461.00">
        <route edges="1:3 3:7"/>
    </vehicle>
    <vehicle id="462" depart="462.00">
        <route edges="10:9 9:0 0:1 1:3"/>
    </vehicle>
    <vehicle id="467" depart="467.00">
        <route edges="7:3 3:1 1:0 0:2 2:8"/>
    </vehicle>
    <vehicle id="472" depart="472.00">
        <route edges="2:0 0:1 1:3"/>
    </vehicle>
    <vehicle id="475" depart="475.00">
        <route edges="1:0"/>
    </vehicle>
    <vehicle id="477" depart="477.00">
        <route edges="5:1 1:0 0:2 2:8"/>
    </vehicle>
    <vehicle id="478" depart="478.00">
        <route edges="9:0 0:2 2:8"/>
    </vehicle>
    <vehicle id="479" depart="479.00">
        <route edges="8:2 2:0 0:1 1:3 3:7"/>
    </vehicle>
    <vehicle id="485" depart="485.00">
        <route edges="10:9 9:0 0:1 1:3 3:7"/>
    </vehicle>
    <vehicle id="486" depart="486.00">
        <route edges="0:2 2:8"/>
    </vehicle>
    <vehicle id="487" depart="487.00">
        <route edges="7:3 3:1 1:0 0:2"/>
    </vehicle>
    <vehicle id="490" depart="490.00">
        <route edges="2:0"/>
    </vehicle>
    <vehicle id="491" depart="491.00">
        <route edges="2:0 0:1"/>
    </vehicle>
    <vehicle id="494" depart="494.00">
        <route edges="0:2 2:8"/>
    </vehicle>
    <vehicle id="495" depart="495.00">
        <route edges="1:0"/>
    </vehicle>
    <vehicle id="496" depart="496.00">
        <route edges="8:2 2:0 0:1 1:3 3:7"/>
    </vehicle>
    <vehicle id="497" depart="497.00">
        <route edges="0:1 1:3"/>
    </vehicle>
    <vehicle id="498" depart="498.00">
        <route edges="9:0 0:1 1:3"/>
    </vehicle>
    <vehicle id="500" depart="500.00">
        <route edges="6:5 5:1 1:0"/>
    </vehicle>
    <vehicle id="504" depart="504.00">
        <route edges="7:3 3:1 1:0 0:2"/>
    </vehicle>
    <vehicle id="505" depart="505.00">
        <route edges="2:0 0:1 1:3"/>
    </vehicle>
    <vehicle id="506" depart="506.00">
        <route edges="1:0 0:2"/>
    </vehicle>
    <vehicle id="511" depart="511.00">
        <route edges="3:1 1:0 0:9"/>
    </vehicle>
    <vehicle id="514" depart="514.00">
        <route edges="1:5 5:6"/>
    </vehicle>
    <vehicle id="517" depart="517.00">
        <route edges="7:3 3:1 1:0 0:2"/>
    </vehicle>
    <vehicle id="518" depart="518.00">
        <route edges="6:5 5:1 1:3 3:7"/>
    </vehicle>
    <vehicle id="519" depart="519.00">
        <route edges="9:0 0:1 1:3 3:7"/>
    </vehicle>
    <vehicle id="520" depart="520.00">
        <route edges="7:3 3:1 1:5 5:6"/>
    </vehicle>
    <vehicle id="522" depart="522.00">
        <route edges="1:3 3:7"/>
    </vehicle>
    <vehicle id="523" depart="523.00">
        <route edges="7:3 3:1 1:5 5:6"/>
    </vehicle>
    <vehicle id="527" depart="527.00">
        <route edges="8:2 2:0 0:1"/>
    </vehicle>
    <vehicle id="529" depart="529.00">
        <route edges="6:5 5:1 1:0 0:2"/>
    </vehicle>
    <vehicle id="532" depart="532.00">
        <route edges="8:2 2:0"/>
    </vehicle>
    <vehicle id="534" depart="534.00">
        <route edges="7:3 3:1"/>
    </vehicle>
    <vehicle id="535" depart="535.00">
        <route edges="7:3 3:1 1:0 0:2"/>
    </vehicle>
    <vehicle id="536" depart="536.00">
        <route edges="8:2 2:0 0:1 1:3 3:7"/>
    </vehicle>
    <vehicle id="538" depart="538.00">
        <route edges="5:1 1:0 0:2 2:8"/>
    </vehicle>
    <vehicle id="540" depart="540.00">
        <route edges="8:2 2:0 0:1 1:5 5:6"/>
    </vehicle>
    <vehicle id="541" depart="541.00">
        <route edges="10:9 9:0 0:2 2:8"/>
    </vehicle>
    <vehicle id="542" depart="542.00">
        <route edges="8:2 2:0 0:9"/>
    </vehicle>
    <vehicle id="545" depart="545.00">
        <route edges="3:1 1:0"/>
    </vehicle>
    <vehicle id="546" depart="546.00">
        <route edges="1:3 3:7"/>
    </vehicle>
    <vehicle id="550" depart="550.00">
        <route edges="8:2 2:0 0:1 1:3 3:7"/>
    </vehicle>
    <vehicle id="553" depart="553.00">
        <route edges="2:0 0:1 1:5 5:6"/>
    </vehicle>
    <vehicle id="554" depart="554.00">
        <route edges="8:2 2:0 0:1 1:3 3:7"/>
    </vehicle>
    <vehicle id="556" depart="556.00">
        <route edges="7:3 3:1 1:0 0:2"/>
    </vehicle>
    <vehicle id="558" depart="558.00">
        <route edges="7:3 3:1 1:0 0:2 2:8"/>
    </vehicle>
    <vehicle id="559" depart="559.00">
        <route edges="10:9 9:0 0:2 2:8"/>
    </vehicle>
    <vehicle id="561" depart="561.00">
        <route edges="0:1 1:3"/>
    </vehicle>
    <vehicle id="562" depart="562.00">
        <route edges="5:1 1:0 0:2 2:8"/>
    </vehicle>
    <vehicle id="563" depart="563.00">
        <route edges="6:5 5:1 1:0 0:2 2:8"/>
    </vehicle>
    <vehicle id="566" depart="566.00">
        <route edges="6:5 5:1 1:3 3:7"/>
    </vehicle>
    <vehicle id="568" depart="568.00">
        <route edges="8:2 2:0 0:9 9:10"/>
    </vehicle>
    <vehicle id="574" depart="574.00">
        <route edges="3:1"/>
    </vehicle>
    <vehicle id="575" depart="575.00">
        <route edges="0:2 2:8"/>
    </vehicle>
    <vehicle id="576" depart="576.00">
        <route edges="6:5 5:1 1:3"/>
    </vehicle>
    <vehicle id="577" depart="577.00">
        <route edges="3:1 1:0 0:9"/>
    </vehicle>
    <vehicle id="579" depart="579.00">
        <route edges="7:3 3:1"/>
    </vehicle>
    <vehicle id="581" depart="581.00">
        <route edges="1:3"/>
    </vehicle>
    <vehicle id="583" depart="583.00">
        <route edges="7:3 3:1 1:0 0:9"/>
    </vehicle>
    <vehicle id="584" depart="584.00">
        <route edges="10:9 9:0 0:1 1:3 3:7"/>
    </vehicle>
    <vehicle id="585" depart="585.00">
        <route edges="6:5 5:1 1:3 3:7"/>
    </vehicle>
    <vehicle id="586" depart="586.00">
        <route edges="8:2 2:0 0:9"/>
    </vehicle>
    <vehicle id="587" depart="587.00">
        <route edges="6:5 5:1 1:0 0:2 2:8"/>
    </vehicle>
    <vehicle id="592" depart="592.00">
        <route edges="3:1"/>
    </vehicle>
    <vehicle id="595" depart="595.00">
        <route edges="2:0 0:1 1:3 3:7"/>
    </vehicle>
    <vehicle id="596" depart="596.00">
        <route edges="6:5 5:1 1:3 3:7"/>
    </vehicle>
    <vehicle id="600" depart="600.00">
        <route edges="10:9 9:0 0:1 1:3 3:7"/>
    </vehicle>
    <vehicle id="601" depart="601.00">
        <route edges="8:2 2:0 0:1 1:3 3:7"/>
    </vehicle>
    <vehicle id="606" depart="606.00">
        <route edges="2:0 0:9"/>
    </vehicle>
    <vehicle id="609" depart="609.00">
        <route edges="7:3 3:1 1:5"/>
    </vehicle>
    <vehicle id="610" depart="610.00">
        <route edges="7:3 3:1 1:0 0:2 2:8"/>
    </vehicle>
    <vehicle id="615" depart="615.00">
        <route edges="1:0 0:2"/>
    </vehicle>
    <vehicle id="618" depart="618.00">
        <route edges="8:2 2:0 0:9 9:10"/>
    </vehicle>
    <vehicle id="620" depart="620.00">
        <route edges="6:5 5:1 1:3 3:7"/>
    </vehicle>
    <vehicle id="621" depart="621.00">
        <route edges="7:3 3:1 1:0 0:2 2:8"/>
    </vehicle>
    <vehicle id="622" depart="622.00">
        <route edges="8:2 2:0 0:1 1:5"/>
    </vehicle>
    <vehicle id="623" depart="623.00">
        <route edges="7:3 3:1 1:0 0:2"/>
    </vehicle>
    <vehicle id="625" depart="625.00">
        <route edges="0:2 2:8"/>
    </vehicle>
    <vehicle id="626" depart="626.00">
        <route edges="10:9 9:0 0:2 2:8"/>
    </vehicle>
    <vehicle id="627" depart="627.00">
        <route edges="1:3 3:7"/>
    </vehicle>
    <vehicle id="628" depart="628.00">
        <route edges="9:0 0:1 1:5"/>
    </vehicle>
    <vehicle id="629" depart="629.00">
        <route edges="7:3 3:1 1:0 0:2 2:8"/>
    </vehicle>
    <vehicle id="630" depart="630.00">
        <route edges="2:0 0:1 1:3"/>
    </vehicle>
    <vehicle id="631" depart="631.00">
        <route edges="6:5 5:1 1:0 0:9 9:10"/>
    </vehicle>
    <vehicle id="634" depart="634.00">
        <route edges="10:9 9:0 0:2 2:8"/>
    </vehicle>
    <vehicle id="637" depart="637.00">
        <route edges="8:2 2:0 0:1 1:3 3:7"/>
    </vehicle>
    <vehicle id="638" depart="638.00">
        <route edges="7:3 3:1 1:5"/>
    </vehicle>
    <vehicle id="639" depart="639.00">
        <route edges="2:0 0:9 9:10"/>
    </vehicle>
    <vehicle id="640" depart="640.00">
        <route edges="7:3 3:1"/>
    </vehicle>
    <vehicle id="646" depart="646.00">
        <route edges="8:2 2:0"/>
    </vehicle>
    <vehicle id="647" depart="647.00">
        <route edges="9:0 0:1 1:3 3:7"/>
    </vehicle>
    <vehicle id="651" depart="651.00">
        <route edges="8:2 2:0 0:1 1:3 3:7"/>
    </vehicle>
    <vehicle id="653" depart="653.00">
        <route edges="0:2 2:8"/>
    </vehicle>
    <vehicle id="656" depart="656.00">
        <route edges="7:3 3:1 1:5"/>
    </vehicle>
    <vehicle id="658" depart="658.00">
        <route edges="9:0 0:2 2:8"/>
    </vehicle>
    <vehicle id="662" depart="662.00">
        <route edges="7:3 3:1 1:0 0:2 2:8"/>
    </vehicle>
    <vehicle id="663" depart="663.00">