<?xml version="1.0" encoding="UTF-8"?>

<!-- generated on Thu Feb 13 14:16:20 2014 by SUMO duarouter Version 0.18.0
<?xml version="1.0" encoding="UTF-8"?>

<configuration xmlns:xsi="http://www.w3.org/2001/XMLSchema-instance" xsi:noNamespaceSchemaLocation="http://sumo.sf.net/xsd/duarouterConfiguration.xsd">

    <input>
        <net-file value="twinT.net.xml"/>
        <trip-files value="experimentos/twinT.p0.7.9.trips.xml"/>
    </input>

    <output>
        <output-file value="experimentos/twinT.p0.7.9.rou.xml"/>
    </output>

    <processing>
        <ignore-errors value="true"/>
    </processing>

    <random_number>
        <random value="true"/>
    </random_number>

</configuration>
-->

<routes xmlns:xsi="http://www.w3.org/2001/XMLSchema-instance" xsi:noNamespaceSchemaLocation="http://sumo.sf.net/xsd/routes_file.xsd">
    <vehicle id="1" depart="0.70">
        <route edges="10:9 9:0"/>
    </vehicle>
    <vehicle id="2" depart="1.40">
        <route edges="2:0 0:1 1:3 3:7"/>
    </vehicle>
    <vehicle id="8" depart="5.60">
        <route edges="0:9 9:10"/>
    </vehicle>
    <vehicle id="10" depart="7.00">
        <route edges="8:2 2:0 0:9 9:10"/>
    </vehicle>
    <vehicle id="12" depart="8.40">
        <route edges="7:3 3:1 1:5"/>
    </vehicle>
    <vehicle id="13" depart="9.10">
        <route edges="10:9 9:0 0:2"/>
    </vehicle>
    <vehicle id="16" depart="11.20">
        <route edges="2:0 0:1"/>
    </vehicle>
    <vehicle id="22" depart="15.40">
        <route edges="0:1 1:3 3:7"/>
    </vehicle>
    <vehicle id="26" depart="18.20">
        <route edges="10:9 9:0 0:1 1:3 3:7"/>
    </vehicle>
    <vehicle id="28" depart="19.60">
        <route edges="0:2"/>
    </vehicle>
    <vehicle id="29" depart="20.30">
        <route edges="7:3 3:1 1:0 0:9 9:10"/>
    </vehicle>
    <vehicle id="30" depart="21.00">
        <route edges="6:5 5:1 1:0 0:2"/>
    </vehicle>
    <vehicle id="34" depart="23.80">
        <route edges="8:2 2:0"/>
    </vehicle>
    <vehicle id="36" depart="25.20">
        <route edges="8:2 2:0 0:1 1:5 5:6"/>
    </vehicle>
    <vehicle id="37" depart="25.90">
        <route edges="7:3 3:1"/>
    </vehicle>
    <vehicle id="39" depart="27.30">
        <route edges="8:2 2:0 0:1 1:5"/>
    </vehicle>
    <vehicle id="40" depart="28.00">
        <route edges="0:1 1:5 5:6"/>
    </vehicle>
    <vehicle id="41" depart="28.70">
        <route edges="1:3 3:7"/>
    </vehicle>
    <vehicle id="47" depart="32.90">
        <route edges="3:1 1:0 0:2 2:8"/>
    </vehicle>
    <vehicle id="49" depart="34.30">
        <route edges="7:3 3:1 1:0"/>
    </vehicle>
    <vehicle id="50" depart="35.00">
        <route edges="8:2 2:0 0:9 9:10"/>
    </vehicle>
    <vehicle id="51" depart="35.70">
        <route edges="3:1 1:0 0:9 9:10"/>
    </vehicle>
    <vehicle id="53" depart="37.10">
        <route edges="2:0 0:1"/>
    </vehicle>
    <vehicle id="54" depart="37.80">
        <route edges="7:3 3:1 1:0 0:2 2:8"/>
    </vehicle>
    <vehicle id="56" depart="39.20">
        <route edges="7:3 3:1 1:0 0:2"/>
    </vehicle>
    <vehicle id="58" depart="40.60">
        <route edges="8:2 2:0 0:1 1:3 3:7"/>
    </vehicle>
    <vehicle id="59" depart="41.30">
        <route edges="10:9 9:0 0:2 2:8"/>
    </vehicle>
    <vehicle id="60" depart="42.00">
        <route edges="0:1 1:5 5:6"/>
    </vehicle>
    <vehicle id="61" depart="42.70">
        <route edges="7:3 3:1 1:0"/>
    </vehicle>
    <vehicle id="65" depart="45.50">
        <route edges="7:3 3:1 1:0 0:2 2:8"/>
    </vehicle>
    <vehicle id="68" depart="47.60">
        <route edges="10:9 9:0 0:1 1:3"/>
    </vehicle>
    <vehicle id="70" depart="49.00">
        <route edges="10:9 9:0 0:1"/>
    </vehicle>
    <vehicle id="71" depart="49.70">
        <route edges="10:9 9:0 0:1 1:5 5:6"/>
    </vehicle>
    <vehicle id="73" depart="51.10">
        <route edges="7:3 3:1 1:0 0:9"/>
    </vehicle>
    <vehicle id="76" depart="53.20">
        <route edges="9:0 0:1 1:5"/>
    </vehicle>
    <vehicle id="77" depart="53.90">
        <route edges="1:5 5:6"/>
    </vehicle>
    <vehicle id="78" depart="54.60">
        <route edges="1:3"/>
    </vehicle>
    <vehicle id="79" depart="55.30">
        <route edges="2:0 0:1 1:3 3:7"/>
    </vehicle>
    <vehicle id="81" depart="56.70">
        <route edges="8:2 2:0 0:1 1:3 3:7"/>
    </vehicle>
    <vehicle id="82" depart="57.40">
        <route edges="9:0 0:1 1:3 3:7"/>
    </vehicle>
    <vehicle id="85" depart="59.50">
        <route edges="5:1 1:0 0:9 9:10"/>
    </vehicle>
    <vehicle id="86" depart="60.20">
        <route edges="8:2 2:0"/>
    </vehicle>
    <vehicle id="87" depart="60.90">
        <route edges="7:3 3:1 1:0"/>
    </vehicle>
    <vehicle id="88" depart="61.60">
        <route edges="8:2 2:0 0:1 1:3"/>
    </vehicle>
    <vehicle id="89" depart="62.30">
        <route edges="2:0 0:1 1:3 3:7"/>
    </vehicle>
    <vehicle id="91" depart="63.70">
        <route edges="8:2 2:0 0:1 1:5"/>
    </vehicle>
    <vehicle id="92" depart="64.40">
        <route edges="8:2 2:0 0:1"/>
    </vehicle>
    <vehicle id="93" depart="65.10">
        <route edges="7:3 3:1 1:0"/>
    </vehicle>
    <vehicle id="94" depart="65.80">
        <route edges="7:3 3:1 1:0 0:2"/>
    </vehicle>
    <vehicle id="96" depart="67.20">
        <route edges="0:9 9:10"/>
    </vehicle>
    <vehicle id="97" depart="67.90">
        <route edges="6:5 5:1 1:0 0:9 9:10"/>
    </vehicle>
    <vehicle id="99" depart="69.30">
        <route edges="7:3 3:1 1:0 0:9 9:10"/>
    </vehicle>
    <vehicle id="102" depart="71.40">
        <route edges="6:5 5:1 1:0 0:9 9:10"/>
    </vehicle>
    <vehicle id="105" depart="73.50">
        <route edges="8:2 2:0 0:1 1:3 3:7"/>
    </vehicle>
    <vehicle id="108" depart="75.60">
        <route edges="0:2"/>
    </vehicle>
    <vehicle id="110" depart="77.00">
        <route edges="2:0 0:9 9:10"/>
    </vehicle>
    <vehicle id="112" depart="78.40">
        <route edges="5:1 1:3"/>
    </vehicle>
    <vehicle id="114" depart="79.80">
        <route edges="8:2 2:0 0:1 1:3 3:7"/>
    </vehicle>
    <vehicle id="116" depart="81.20">
        <route edges="1:0 0:2 2:8"/>
    </vehicle>
    <vehicle id="120" depart="84.00">
        <route edges="1:0 0:9 9:10"/>
    </vehicle>
    <vehicle id="122" depart="85.40">
        <route edges="5:1 1:0 0:2"/>
    </vehicle>
    <vehicle id="123" depart="86.10">
        <route edges="1:3 3:7"/>
    </vehicle>
    <vehicle id="124" depart="86.80">
        <route edges="3:1 1:0 0:2 2:8"/>
    </vehicle>
    <vehicle id="129" depart="90.30">
        <route edges="6:5 5:1 1:3 3:7"/>
    </vehicle>
    <vehicle id="130" depart="91.00">
        <route edges="1:0 0:9"/>
    </vehicle>
    <vehicle id="131" depart="91.70">
        <route edges="3:1 1:0"/>
    </vehicle>
    <vehicle id="133" depart="93.10">
        <route edges="5:1 1:3 3:7"/>
    </vehicle>
    <vehicle id="134" depart="93.80">
        <route edges="0:1 1:3 3:7"/>
    </vehicle>
    <vehicle id="138" depart="96.60">
        <route edges="8:2 2:0 0:1 1:3"/>
    </vehicle>
    <vehicle id="141" depart="98.70">
        <route edges="1:0 0:9 9:10"/>
    </vehicle>
    <vehicle id="142" depart="99.40">
        <route edges="3:1"/>
    </vehicle>
    <vehicle id="144" depart="100.80">
        <route edges="10:9 9:0 0:1 1:5 5:6"/>
    </vehicle>
    <vehicle id="146" depart="102.20">
        <route edges="8:2 2:0 0:9 9:10"/>
    </vehicle>
    <vehicle id="148" depart="103.60">
        <route edges="6:5 5:1 1:3"/>
    </vehicle>
    <vehicle id="149" depart="104.30">
        <route edges="7:3 3:1 1:0 0:9 9:10"/>
    </vehicle>
    <vehicle id="150" depart="105.00">
        <route edges="6:5 5:1 1:0 0:2 2:8"/>
    </vehicle>
    <vehicle id="151" depart="105.70">
        <route edges="8:2 2:0 0:1 1:3"/>
    </vehicle>
    <vehicle id="153" depart="107.10">
        <route edges="6:5 5:1 1:0 0:9 9:10"/>
    </vehicle>
    <vehicle id="156" depart="109.20">
        <route edges="1:3"/>
    </vehicle>
    <vehicle id="159" depart="111.30">
        <route edges="7:3 3:1 1:0"/>
    </vehicle>
    <vehicle id="160" depart="112.00">
        <route edges="10:9 9:0 0:1 1:5 5:6"/>
    </vehicle>
    <vehicle id="163" depart="114.10">
        <route edges="7:3 3:1 1:0 0:2 2:8"/>
    </vehicle>
    <vehicle id="164" depart="114.80">
        <route edges="2:0 0:9 9:10"/>
    </vehicle>
    <vehicle id="166" depart="116.20">
        <route edges="7:3 3:1 1:0 0:2"/>
    </vehicle>
    <vehicle id="168" depart="117.60">
        <route edges="10:9 9:0 0:1 1:3"/>
    </vehicle>
    <vehicle id="170" depart="119.00">
        <route edges="10:9 9:0 0:1 1:3 3:7"/>
    </vehicle>
    <vehicle id="171" depart="119.70">
        <route edges="10:9 9:0 0:1 1:3 3:7"/>
    </vehicle>
    <vehicle id="173" depart="121.10">
        <route edges="2:0"/>
    </vehicle>
    <vehicle id="174" depart="121.80">
        <route edges="2:0 0:1"/>
    </vehicle>
    <vehicle id="177" depart="123.90">
        <route edges="8:2 2:0 0:1 1:3"/>
    </vehicle>
    <vehicle id="179" depart="125.30">
        <route edges="10:9 9:0 0:1 1:5"/>
    </vehicle>
    <vehicle id="199" depart="139.30">
        <route edges="7:3 3:1 1:0 0:9 9:10"/>
    </vehicle>
    <vehicle id="202" depart="141.40">
        <route edges="8:2 2:0 0:1 1:5 5:6"/>
    </vehicle>
    <vehicle id="203" depart="142.10">
        <route edges="5:1 1:3"/>
    </vehicle>
    <vehicle id="206" depart="144.20">
        <route edges="8:2 2:0 0:1 1:3"/>
    </vehicle>
    <vehicle id="212" depart="148.40">
        <route edges="7:3 3:1 1:0 0:9 9:10"/>
    </vehicle>
    <vehicle id="213" depart="149.10">
        <route edges="3:1 1:5 5:6"/>
    </vehicle>
    <vehicle id="214" depart="149.80">
        <route edges="3:1 1:0 0:2 2:8"/>
    </vehicle>
    <vehicle id="219" depart="153.30">
        <route edges="10:9 9:0 0:2 2:8"/>
    </vehicle>
    <vehicle id="226" depart="158.20">
        <route edges="2:0"/>
    </vehicle>
    <vehicle id="228" depart="159.60">
        <route edges="1:0 0:2 2:8"/>
    </vehicle>
    <vehicle id="233" depart="163.10">
        <route edges="8:2 2:0 0:1 1:3 3:7"/>
    </vehicle>
    <vehicle id="234" depart="163.80">
        <route edges="0:2"/>
    </vehicle>
    <vehicle id="235" depart="164.50">
        <route edges="7:3 3:1 1:5"/>
    </vehicle>
    <vehicle id="237" depart="165.90">
        <route edges="7:3 3:1"/>
    </vehicle>
    <vehicle id="241" depart="168.70">
        <route edges="7:3 3:1 1:0 0:2 2:8"/>
    </vehicle>
    <vehicle id="242" depart="169.40">
        <route edges="1:3"/>
    </vehicle>
    <vehicle id="243" depart="170.10">
        <route edges="8:2 2:0"/>
    </vehicle>
    <vehicle id="245" depart="171.50">
        <route edges="9:0 0:1 1:5 5:6"/>
    </vehicle>
    <vehicle id="247" depart="172.90">
        <route edges="1:3 3:7"/>
    </vehicle>
    <vehicle id="251" depart="175.70">
        <route edges="1:0 0:2 2:8"/>
    </vehicle>
    <vehicle id="254" depart="177.80">
        <route edges="0:1 1:5 5:6"/>
    </vehicle>
    <vehicle id="259" depart="181.30">
        <route edges="7:3 3:1 1:0 0:2 2:8"/>
    </vehicle>
    <vehicle id="260" depart="182.00">
        <route edges="9:0 0:1 1:3"/>
    </vehicle>
    <vehicle id="261" depart="182.70">
        <route edges="8:2 2:0 0:1 1:5 5:6"/>
    </vehicle>
    <vehicle id="264" depart="184.80">
        <route edges="1:3 3:7"/>
    </vehicle>
    <vehicle id="265" depart="185.50">
        <route edges="3:1 1:0 0:9"/>
    </vehicle>
    <vehicle id="267" depart="186.90">
        <route edges="2:0 0:1 1:3"/>
    </vehicle>
    <vehicle id="268" depart="187.60">
        <route edges="2:0 0:1 1:3 3:7"/>
    </vehicle>
    <vehicle id="269" depart="188.30">
        <route edges="3:1 1:0 0:2"/>
    </vehicle>
    <vehicle id="270" depart="189.00">
        <route edges="8:2 2:0"/>
    </vehicle>
    <vehicle id="273" depart="191.10">
        <route edges="1:5"/>
    </vehicle>
    <vehicle id="275" depart="192.50">
        <route edges="10:9 9:0 0:1 1:3 3:7"/>
    </vehicle>
    <vehicle id="276" depart="193.20">
        <route edges="6:5 5:1 1:0 0:2 2:8"/>
    </vehicle>
    <vehicle id="277" depart="193.90">
        <route edges="2:0 0:1 1:3 3:7"/>
    </vehicle>
    <vehicle id="283" depart="198.10">
        <route edges="0:1 1:5"/>
    </vehicle>
    <vehicle id="292" depart="204.40">
        <route edges="2:0 0:1 1:3 3:7"/>
    </vehicle>
    <vehicle id="297" depart="207.90">
        <route edges="10:9 9:0 0:1 1:3 3:7"/>
    </vehicle>
    <vehicle id="299" depart="209.30">
        <route edges="9:0 0:2 2:8"/>
    </vehicle>
    <vehicle id="300" depart="210.00">
        <route edges="8:2 2:0 0:1 1:3"/>
    </vehicle>
    <vehicle id="302" depart="211.40">
        <route edges="8:2 2:0 0:1 1:3 3:7"/>
    </vehicle>
    <vehicle id="310" depart="217.00">
        <route edges="9:0 0:1 1:3 3:7"/>
    </vehicle>
    <vehicle id="312" depart="218.40">
        <route edges="8:2 2:0 0:1 1:3 3:7"/>
    </vehicle>
    <vehicle id="314" depart="219.80">
        <route edges="10:9 9:0 0:1 1:3 3:7"/>
    </vehicle>
    <vehicle id="315" depart="220.50">
        <route edges="9:0 0:2 2:8"/>
    </vehicle>
    <vehicle id="319" depart="223.30">
        <route edges="10:9 9:0 0:1 1:3"/>
    </vehicle>
    <vehicle id="323" depart="226.10">
        <route edges="10:9 9:0 0:1 1:3 3:7"/>
    </vehicle>
    <vehicle id="324" depart="226.80">
        <route edges="10:9 9:0 0:2 2:8"/>
    </vehicle>
    <vehicle id="325" depart="227.50">
        <route edges="1:0 0:2 2:8"/>
    </vehicle>
    <vehicle id="326" depart="228.20">
        <route edges="7:3 3:1 1:0"/>
    </vehicle>
    <vehicle id="329" depart="230.30">
        <route edges="2:0 0:1 1:3 3:7"/>
    </vehicle>
    <vehicle id="330" depart="231.00">
        <route edges="8:2 2:0 0:1"/>
    </vehicle>
    <vehicle id="331" depart="231.70">
        <route edges="6:5 5:1 1:3"/>
    </vehicle>
    <vehicle id="333" depart="233.10">
        <route edges="7:3 3:1 1:5"/>
    </vehicle>
    <vehicle id="334" depart="233.80">
        <route edges="8:2 2:0"/>
    </vehicle>
    <vehicle id="335" depart="234.50">
        <route edges="7:3 3:1"/>
    </vehicle>
    <vehicle id="336" depart="235.20">
        <route edges="7:3 3:1"/>
    </vehicle>
    <vehicle id="339" depart="237.30">
        <route edges="0:2 2:8"/>
    </vehicle>
    <vehicle id="342" depart="239.40">
        <route edges="8:2 2:0"/>
    </vehicle>
    <vehicle id="346" depart="242.20">
        <route edges="2:0"/>
    </vehicle>
    <vehicle id="348" depart="243.60">
        <route edges="9:0 0:1"/>
    </vehicle>
    <vehicle id="352" depart="246.40">
        <route edges="8:2 2:0 0:1 1:5 5:6"/>
    </vehicle>
    <vehicle id="356" depart="249.20">
        <route edges="6:5 5:1 1:0"/>
    </vehicle>
    <vehicle id="357" depart="249.90">
        <route edges="7:3 3:1 1:0 0:9 9:10"/>
    </vehicle>
    <vehicle id="358" depart="250.60">
        <route edges="3:1 1:0 0:2"/>
    </vehicle>
    <vehicle id="361" depart="252.70">
        <route edges="8:2 2:0 0:9 9:10"/>
    </vehicle>
    <vehicle id="362" depart="253.40">
        <route edges="7:3 3:1 1:5"/>
    </vehicle>
    <vehicle id="370" depart="259.00">
        <route edges="2:0 0:9 9:10"/>
    </vehicle>
    <vehicle id="371" depart="259.70">
        <route edges="8:2 2:0 0:9"/>
    </vehicle>
    <vehicle id="372" depart="260.40">
        <route edges="7:3 3:1 1:0 0:2 2:8"/>
    </vehicle>
    <vehicle id="374" depart="261.80">
        <route edges="7:3 3:1 1:0 0:2 2:8"/>
    </vehicle>
    <vehicle id="376" depart="263.20">
        <route edges="7:3 3:1 1:0 0:2 2:8"/>
    </vehicle>
    <vehicle id="377" depart="263.90">
        <route edges="2:0"/>
    </vehicle>
    <vehicle id="378" depart="264.60">
        <route edges="7:3 3:1 1:5"/>
    </vehicle>
    <vehicle id="379" depart="265.30">
        <route edges="10:9 9:0 0:2 2:8"/>
    </vehicle>
    <vehicle id="380" depart="266.00">
        <route edges="0:2 2:8"/>
    </vehicle>
    <vehicle id="381" depart="266.70">
        <route edges="6:5 5:1 1:0 0:2 2:8"/>
    </vehicle>
    <vehicle id="382" depart="267.40">
        <route edges="2:0 0:1 1:5"/>
    </vehicle>
    <vehicle id="385" depart="269.50">
        <route edges="8:2 2:0 0:9"/>
    </vehicle>
    <vehicle id="390" depart="273.00">
        <route edges="0:2 2:8"/>
    </vehicle>
    <vehicle id="391" depart="273.70">
        <route edges="0:2 2:8"/>
    </vehicle>
    <vehicle id="394" depart="275.80">
        <route edges="7:3 3:1 1:0 0:9 9:10"/>
    </vehicle>
    <vehicle id="398" depart="278.60">
        <route edges="2:0 0:1 1:3 3:7"/>
    </vehicle>
    <vehicle id="401" depart="280.70">
        <route edges="10:9 9:0 0:1 1:3"/>
    </vehicle>
    <vehicle id="402" depart="281.40">
        <route edges="8:2 2:0 0:1 1:3 3:7"/>
    </vehicle>
    <vehicle id="407" depart="284.90">
        <route edges="10:9 9:0 0:1"/>
    </vehicle>
    <vehicle id="410" depart="287.00">
        <route edges="1:0 0:9 9:10"/>
    </vehicle>
    <vehicle id="412" depart="288.40">
        <route edges="7:3 3:1 1:5 5:6"/>
    </vehicle>
    <vehicle id="415" depart="290.50">
        <route edges="3:1 1:0 0:9 9:10"/>
    </vehicle>
    <vehicle id="416" depart="291.20">
        <route edges="7:3 3:1 1:0 0:2 2:8"/>
    </vehicle>
    <vehicle id="418" depart="292.60">
        <route edges="1:3 3:7"/>
    </vehicle>
    <vehicle id="420" depart="294.00">
        <route edges="1:3"/>
    </vehicle>
    <vehicle id="421" depart="294.70">
        <route edges="5:1 1:0 0:9 9:10"/>
    </vehicle>
    <vehicle id="422" depart="295.40">
        <route edges="7:3 3:1"/>
    </vehicle>
    <vehicle id="423" depart="296.10">
        <route edges="7:3 3:1 1:0 0:9 9:10"/>
    </vehicle>
    <vehicle id="424" depart="296.80">
        <route edges="8:2 2:0 0:1"/>
    </vehicle>
    <vehicle id="425" depart="297.50">
        <route edges="0:1 1:3 3:7"/>
    </vehicle>
    <vehicle id="428" depart="299.60">
        <route edges="8:2 2:0 0:1 1:3"/>
    </vehicle>
    <vehicle id="431" depart="301.70">
        <route edges="1:0 0:2"/>
    </vehicle>
    <vehicle id="432" depart="302.40">
        <route edges="6:5 5:1 1:3 3:7"/>
    </vehicle>
    <vehicle id="434" depart="303.80">
        <route edges="7:3 3:1"/>
    </vehicle>
    <vehicle id="435" depart="304.50">
        <route edges="10:9 9:0 0:2"/>
    </vehicle>
    <vehicle id="441" depart="308.70">
        <route edges="1:0 0:2"/>
    </vehicle>
    <vehicle id="442" depart="309.40">
        <route edges="8:2 2:0 0:1 1:5 5:6"/>
    </vehicle>
    <vehicle id="444" depart="310.80">
        <route edges="8:2 2:0 0:1 1:3 3:7"/>
    </vehicle>
    <vehicle id="445" depart="311.50">
        <route edges="7:3 3:1 1:0 0:2 2:8"/>
    </vehicle>
    <vehicle id="450" depart="315.00">
        <route edges="8:2 2:0 0:1 1:3"/>
    </vehicle>
    <vehicle id="453" depart="317.10">
        <route edges="1:0 0:2 2:8"/>
    </vehicle>
    <vehicle id="461" depart="322.70">
        <route edges="1:3"/>
    </vehicle>
    <vehicle id="462" depart="323.40">
        <route edges="3:1 1:0 0:2 2:8"/>
    </vehicle>
    <vehicle id="463" depart="324.10">
        <route edges="6:5 5:1 1:0 0:9"/>
    </vehicle>
    <vehicle id="465" depart="325.50">
        <route edges="10:9 9:0 0:2"/>
    </vehicle>
    <vehicle id="467" depart="326.90">
        <route edges="1:3 3:7"/>
    </vehicle>
    <vehicle id="470" depart="329.00">
        <route edges="6:5 5:1 1:0 0:2"/>
    </vehicle>
    <vehicle id="472" depart="330.40">
        <route edges="7:3 3:1 1:0 0:2 2:8"/>
    </vehicle>
    <vehicle id="473" depart="331.10">
        <route edges="8:2 2:0 0:1 1:5 5:6"/>
    </vehicle>
    <vehicle id="474" depart="331.80">
        <route edges="2:0 0:1"/>
    </vehicle>
    <vehicle id="477" depart="333.90">
        <route edges="8:2 2:0"/>
    </vehicle>
    <vehicle id="478" depart="334.60">
        <route edges="9:0 0:1 1:5 5:6"/>
    </vehicle>
    <vehicle id="481" depart="336.70">
        <route edges="8:2 2:0 0:1"/>
    </vehicle>
    <vehicle id="484" depart="338.80">
        <route edges="7:3 3:1 1:0 0:2 2:8"/>
    </vehicle>
    <vehicle id="485" depart="339.50">
        <route edges="9:0 0:2"/>
    </vehicle>
    <vehicle id="486" depart="340.20">
        <route edges="0:2 2:8"/>
    </vehicle>
    <vehicle id="488" depart="341.60">
        <route edges="8:2 2:0"/>
    </vehicle>
    <vehicle id="489" depart="342.30">
        <route edges="7:3 3:1 1:0 0:2 2:8"/>
    </vehicle>
    <vehicle id="490" depart="343.00">
        <route edges="6:5 5:1 1:3 3:7"/>
    </vehicle>
    <vehicle id="491" depart="343.70">
        <route edges="8:2 2:0 0:1 1:3 3:7"/>
    </vehicle>
    <vehicle id="492" depart="344.40">
        <route edges="1:0"/>
    </vehicle>
    <vehicle id="494" depart="345.80">
        <route edges="8:2 2:0 0:9 9:10"/>
    </vehicle>
    <vehicle id="495" depart="346.50">
        <route edges="6:5 5:1 1:0"/>
    </vehicle>
    <vehicle id="496" depart="347.20">
        <route edges="8:2 2:0 0:1 1:3 3:7"/>
    </vehicle>
    <vehicle id="501" depart="350.70">
        <route edges="8:2 2:0 0:1 1:5 5:6"/>
    </vehicle>
    <vehicle id="510" depart="357.00">
        <route edges="9:0 0:1 1:5"/>
    </vehicle>
    <vehicle id="511" depart="357.70">
        <route edges="8:2 2:0"/>
    </vehicle>
    <vehicle id="515" depart="360.50">
        <route edges="2:0 0:1 1:3"/>
    </vehicle>
    <vehicle id="516" depart="361.20">
        <route edges="7:3 3:1 1:5"/>
    </vehicle>
    <vehicle id="521" depart="364.70">
        <route edges="8:2 2:0 0:1 1:3"/>
    </vehicle>
    <vehicle id="522" depart="365.40">
        <route edges="2:0 0:1 1:3 3:7"/>
    </vehicle>
    <vehicle id="524" depart="366.80">
        <route edges="1:3 3:7"/>
    </vehicle>
    <vehicle id="526" depart="368.20">
        <route edges="3:1 1:0 0:2 2:8"/>
    </vehicle>
    <vehicle id="528" depart="369.60">
        <route edges="8:2 2:0 0:9 9:10"/>
    </vehicle>
    <vehicle id="530" depart="371.00">
        <route edges="2:0 0:1 1:3 3:7"/>
    </vehicle>
    <vehicle id="531" depart="371.70">
        <route edges="9:0"/>
    </vehicle>
    <vehicle id="534" depart="373.80">
        <route edges="6:5 5:1 1:0 0:2"/>
    </vehicle>
    <vehicle id="535" depart="374.50">
        <route edges="8:2 2:0 0:1 1:5 5:6"/>
    </vehicle>
    <vehicle id="536" depart="375.20">
        <route edges="6:5 5:1 1:0 0:2"/>
    </vehicle>
    <vehicle id="540" depart="378.00">
        <route edges="7:3 3:1"/>
    </vehicle>
    <vehicle id="542" depart="379.40">
        <route edges="0:1 1:5"/>
    </vehicle>
    <vehicle id="543" depart="380.10">
        <route edges="1:0 0:2 2:8"/>
    </vehicle>
    <vehicle id="546" depart="382.20">
        <route edges="1:3 3:7"/>
    </vehicle>
    <vehicle id="548" depart="383.60">
        <route edges="2:0"/>
    </vehicle>
    <vehicle id="552" depart="386.40">
        <route edges="3:1 1:0 0:2 2:8"/>
    </vehicle>
    <vehicle id="555" depart="388.50">
        <route edges="8:2 2:0 0:1 1:3"/>
    </vehicle>
    <vehicle id="557" depart="389.90">
        <route edges="0:1 1:5 5:6"/>
    </vehicle>
    <vehicle id="560" depart="392.00">
        <route edges="0:1 1:3"/>
    </vehicle>
    <vehicle id="564" depart="394.80">
        <route edges="2:0 0:1 1:5"/>
    </vehicle>
    <vehicle id="568" depart="397.60">
        <route edges="7:3 3:1 1:0 0:2"/>
    </vehicle>
    <vehicle id="569" depart="398.30">
        <route edges="7:3 3:1 1:5 5:6"/>
    </vehicle>
    <vehicle id="570" depart="399.00">
        <route edges="3:1 1:0 0:2"/>
    </vehicle>
    <vehicle id="571" depart="399.70">
        <route edges="6:5 5:1 1:0 0:9 9:10"/>
    </vehicle>
    <vehicle id="572" depart="400.40">
        <route edges="10:9 9:0 0:2"/>
    </vehicle>
    <vehicle id="574" depart="401.80">
        <route edges="2:0 0:1 1:3 3:7"/>
    </vehicle>
    <vehicle id="576" depart="403.20">
        <route edges="7:3 3:1 1:0 0:2"/>
    </vehicle>
    <vehicle id="580" depart="406.00">
        <route edges="3:1 1:0 0:9"/>
    </vehicle>
    <vehicle id="581" depart="406.70">
        <route edges="2:0 0:1 1:3"/>
    </vehicle>
    <vehicle id="582" depart="407.40">
        <route edges="0:1 1:5 5:6"/>
    </vehicle>
    <vehicle id="585" depart="409.50">
        <route edges="2:0 0:9"/>
    </vehicle>
    <vehicle id="586" depart="410.20">
        <route edges="7:3 3:1 1:0 0:9"/>
    </vehicle>
    <vehicle id="589" depart="412.30">
        <route edges="7:3 3:1 1:0 0:2"/>
    </vehicle>
    <vehicle id="593" depart="415.10">
        <route edges="6:5 5:1 1:0 0:2"/>
    </vehicle>
    <vehicle id="594" depart="415.80">
        <route edges="7:3 3:1 1:5 5:6"/>
    </vehicle>
    <vehicle id="597" depart="417.90">
        <route edges="0:1 1:3 3:7"/>
    </vehicle>
    <vehicle id="598" depart="418.60">
        <route edges="0:1"/>
    </vehicle>
    <vehicle id="602" depart="421.40">
        <route edges="8:2 2:0 0:1 1:3 3:7"/>
    </vehicle>
    <vehicle id="603" depart="422.10">
        <route edges="8:2 2:0 0:1 1:3 3:7"/>
    </vehicle>
    <vehicle id="604" depart="422.80">
        <route edges="5:1 1:3 3:7"/>
    </vehicle>
    <vehicle id="605" depart="423.50">
        <route edges="8:2 2:0 0:1 1:3 3:7"/>
    </vehicle>
    <vehicle id="606" depart="424.20">
        <route edges="0:2 2:8"/>
    </vehicle>
    <vehicle id="607" depart="424.90">
        <route edges="7:3 3:1"/>
    </vehicle>
    <vehicle id="608" depart="425.60">
        <route edges="0:9 9:10"/>
    </vehicle>
    <vehicle id="611" depart="427.70">
        <route edges="5:1 1:0 0:2 2:8"/>
    </vehicle>
    <vehicle id="613" depart="429.10">
        <route edges="8:2 2:0"/>
    </vehicle>
    <vehicle id="614" depart="429.80">
        <route edges="7:3 3:1 1:0 0:9 9:10"/>
    </vehicle>
    <vehicle id="615" depart="430.50">
        <route edges="6:5 5:1 1:3 3:7"/>
    </vehicle>
    <vehicle id="616" depart="431.20">
        <route edges="7:3 3:1 1:0 0:2 2:8"/>
    </vehicle>
    <vehicle id="617" depart="431.90">
        <route edges="7:3 3:1 1:0 0:9 9:10"/>
    </vehicle>
    <vehicle id="618" depart="432.60">
        <route edges="1:3"/>
    </vehicle>
    <vehicle id="620" depart="434.00">
        <route edges="8:2 2:0"/>
    </vehicle>
    <vehicle id="622" depart="435.40">
        <route edges="6:5 5:1 1:0"/>
    </vehicle>
    <vehicle id="623" depart="436.10">
        <route edges="0:1 1:5 5:6"/>
    </vehicle>
    <vehicle id="625" depart="437.50">
        <route edges="9:0 0:2 2:8"/>
    </vehicle>
    <vehicle id="633" depart="443.10">
        <route edges="1:3 3:7"/>
    </vehicle>
    <vehicle id="635" depart="444.50">
        <route edges="0:2 2:8"/>
    </vehicle>
    <vehicle id="636" depart="445.20">
        <route edges="9:0 0:1 1:3 3:7"/>
    </vehicle>
    <vehicle id="637" depart="445.90">
        <route edges="1:3"/>
    </vehicle>
    <vehicle id="638" depart="446.60">
        <route edges="3:1 1:0 0:2"/>
    </vehicle>
    <vehicle id="639" depart="447.30">
        <route edges="8:2 2:0 0:1 1:3 3:7"/>
    </vehicle>
    <vehicle id="640" depart="448.00">
        <route edges="5:1 1:0 0:2 2:8"/>
    </vehicle>
    <vehicle id="643" depart="450.10">
        <route edges="10:9 9:0 0:1"/>
    </vehicle>
    <vehicle id="646" depart="452.20">
        <route edges="3:1 1:0 0:2 2:8"/>
    </vehicle>
    <vehicle id="647" depart="452.90">
        <route edges="8:2 2:0 0:1 1:3 3:7"/>
    </vehicle>
    <vehicle id="651" depart="455.70">
        <route edges="0:2 2:8"/>
    </vehicle>
    <vehicle id="655" depart="458.50">
        <route edges="9:0 0:2 2:8"/>
    </vehicle>
    <vehicle id="658" depart="460.60">
        <route edges="8:2 2:0"/>
    </vehicle>
    <vehicle id="661" depart="462.70">
        <route edges="8:2 2:0 0:1 1:5 5:6"/>
    </vehicle>
    <vehicle id="664" depart="464.80">
        <route edges="8:2 2:0 0:9 9:10"/>
    </vehicle>
    <vehicle id="667" depart="466.90">
        <route edges="3:1 1:0 0:9 9:10"/>
    </vehicle>
    <vehicle id="668" depart="467.60">
        <route edges="0:9"/>
    </vehicle>
    <vehicle id="671" depart="469.70">
        <route edges="1:0 0:9"/>
    </vehicle>
    <vehicle id="674" depart="471.80">
        <route edges="6:5 5:1 1:0 0:2 2:8"/>
    </vehicle>
    <vehicle id="675" depart="472.50">
        <route edges="6:5 5:1 1:3"/>
    </vehicle>
    <vehicle id="677" depart="473.90">
        <route edges="1:3"/>
    </vehicle>
    <vehicle id="678" depart="474.60">
        <route edges="5:1 1:0 0:9 9:10"/>
    </vehicle>
    <vehicle id="683" depart="478.10">
        <route edges="9:0 0:1 1:3 3:7"/>
    </vehicle>
    <vehicle id="685" depart="479.50">
        <route edges="10:9 9:0 0:1 1:3 3:7"/>
    </vehicle>
    <vehicle id="686" depart="480.20">
        <route edges="2:0 0:1 1:3"/>
    </vehicle>
    <vehicle id="694" depart="485.80">
        <route edges="1:0 0:9 9:10"/>
    </vehicle>
    <vehicle id="695" depart="486.50">
        <route edges="6:5 5:1 1:0 0:2"/>
    </vehicle>
    <vehicle id="697" depart="487.90">
        <route edges="10:9 9:0 0:1 1:5 5:6"/>
    </vehicle>
    <vehicle id="698" depart="488.60">
        <route edges="8:2 2:0 0:1 1:3 3:7"/>
    </vehicle>
    <vehicle id="707" depart="494.90">
        <route edges="3:1 1:5 5:6"/>
    </vehicle>
    <vehicle id="710" depart="497.00">
        <route edges="1:3"/>
    </vehicle>
    <vehicle id="712" depart="498.40">
        <route edges="0:1"/>
    </vehicle>
    <vehicle id="713" depart="499.10">
        <route edges="8:2 2:0 0:1 1:5 5:6"/>
    </vehicle>
    <vehicle id="717" depart="501.90">
        <route edges="3:1 1:0 0:2"/>
    </vehicle>
    <vehicle id="720" depart="504.00">
        <route edges="8:2 2:0 0:1 1:3 3:7"/>