<?xml version="1.0" encoding="UTF-8"?>

<!-- generated on Thu Feb 13 14:14:28 2014 by SUMO duarouter Version 0.18.0
<?xml version="1.0" encoding="UTF-8"?>

<configuration xmlns:xsi="http://www.w3.org/2001/XMLSchema-instance" xsi:noNamespaceSchemaLocation="http://sumo.sf.net/xsd/duarouterConfiguration.xsd">

    <input>
        <net-file value="twinT.net.xml"/>
        <trip-files value="experimentos/twinT.p0.1.5.trips.xml"/>
    </input>

    <output>
        <output-file value="experimentos/twinT.p0.1.5.rou.xml"/>
    </output>

    <processing>
        <ignore-errors value="true"/>
    </processing>

    <random_number>
        <random value="true"/>
    </random_number>

</configuration>
-->

<routes xmlns:xsi="http://www.w3.org/2001/XMLSchema-instance" xsi:noNamespaceSchemaLocation="http://sumo.sf.net/xsd/routes_file.xsd">
    <vehicle id="2" depart="0.20">
        <route edges="3:1 1:0 0:2"/>
    </vehicle>
    <vehicle id="6" depart="0.60">
        <route edges="7:3 3:1 1:0 0:2 2:8"/>
    </vehicle>
    <vehicle id="8" depart="0.80">
        <route edges="2:0"/>
    </vehicle>
    <vehicle id="10" depart="1.00">
        <route edges="1:0"/>
    </vehicle>
    <vehicle id="12" depart="1.20">
        <route edges="6:5 5:1"/>
    </vehicle>
    <vehicle id="14" depart="1.40">
        <route edges="10:9 9:0 0:2"/>
    </vehicle>
    <vehicle id="15" depart="1.50">
        <route edges="7:3 3:1 1:0 0:9 9:10"/>
    </vehicle>
    <vehicle id="16" depart="1.60">
        <route edges="5:1 1:0 0:9 9:10"/>
    </vehicle>
    <vehicle id="18" depart="1.80">
        <route edges="2:0 0:1 1:3 3:7"/>
    </vehicle>
    <vehicle id="21" depart="2.10">
        <route edges="6:5 5:1 1:3"/>
    </vehicle>
    <vehicle id="24" depart="2.40">
        <route edges="8:2 2:0"/>
    </vehicle>
    <vehicle id="26" depart="2.60">
        <route edges="8:2 2:0 0:1"/>
    </vehicle>
    <vehicle id="29" depart="2.90">
        <route edges="6:5 5:1 1:0 0:2 2:8"/>
    </vehicle>
    <vehicle id="30" depart="3.00">
        <route edges="7:3 3:1 1:0 0:2 2:8"/>
    </vehicle>
    <vehicle id="34" depart="3.40">
        <route edges="3:1 1:5"/>
    </vehicle>
    <vehicle id="35" depart="3.50">
        <route edges="7:3 3:1"/>
    </vehicle>
    <vehicle id="37" depart="3.70">
        <route edges="0:1 1:3 3:7"/>
    </vehicle>
    <vehicle id="38" depart="3.80">
        <route edges="8:2 2:0"/>
    </vehicle>
    <vehicle id="41" depart="4.10">
        <route edges="7:3 3:1 1:0 0:9"/>
    </vehicle>
    <vehicle id="42" depart="4.20">
        <route edges="10:9 9:0 0:1 1:3 3:7"/>
    </vehicle>
    <vehicle id="43" depart="4.30">
        <route edges="7:3 3:1 1:0 0:2 2:8"/>
    </vehicle>
    <vehicle id="44" depart="4.40">
        <route edges="3:1"/>
    </vehicle>
    <vehicle id="45" depart="4.50">
        <route edges="8:2 2:0"/>
    </vehicle>
    <vehicle id="46" depart="4.60">
        <route edges="6:5 5:1 1:0 0:2 2:8"/>
    </vehicle>
    <vehicle id="48" depart="4.80">
        <route edges="3:1 1:0 0:9"/>
    </vehicle>
    <vehicle id="49" depart="4.90">
        <route edges="7:3 3:1 1:0 0:2 2:8"/>
    </vehicle>
    <vehicle id="50" depart="5.00">
        <route edges="9:0 0:2 2:8"/>
    </vehicle>
    <vehicle id="51" depart="5.10">
        <route edges="7:3 3:1 1:0 0:2 2:8"/>
    </vehicle>
    <vehicle id="52" depart="5.20">
        <route edges="10:9 9:0 0:1 1:3 3:7"/>
    </vehicle>
    <vehicle id="53" depart="5.30">
        <route edges="3:1 1:0 0:9"/>
    </vehicle>
    <vehicle id="57" depart="5.70">
        <route edges="7:3 3:1 1:0 0:2"/>
    </vehicle>
    <vehicle id="61" depart="6.10">
        <route edges="1:5 5:6"/>
    </vehicle>
    <vehicle id="65" depart="6.50">
        <route edges="0:1 1:3"/>
    </vehicle>
    <vehicle id="67" depart="6.70">
        <route edges="7:3 3:1"/>
    </vehicle>
    <vehicle id="68" depart="6.80">
        <route edges="8:2 2:0 0:1"/>
    </vehicle>
    <vehicle id="71" depart="7.10">
        <route edges="8:2 2:0"/>
    </vehicle>
    <vehicle id="74" depart="7.40">
        <route edges="10:9 9:0 0:2 2:8"/>
    </vehicle>
    <vehicle id="75" depart="7.50">
        <route edges="6:5 5:1 1:0 0:9"/>
    </vehicle>
    <vehicle id="77" depart="7.70">
        <route edges="1:3 3:7"/>
    </vehicle>
    <vehicle id="79" depart="7.90">
        <route edges="7:3 3:1 1:0 0:2 2:8"/>
    </vehicle>
    <vehicle id="80" depart="8.00">
        <route edges="9:0 0:1 1:3"/>
    </vehicle>
    <vehicle id="81" depart="8.10">
        <route edges="6:5 5:1 1:3"/>
    </vehicle>
    <vehicle id="83" depart="8.30">
        <route edges="7:3 3:1"/>
    </vehicle>
    <vehicle id="84" depart="8.40">
        <route edges="10:9 9:0 0:1 1:3 3:7"/>
    </vehicle>
    <vehicle id="85" depart="8.50">
        <route edges="1:0 0:2"/>
    </vehicle>
    <vehicle id="86" depart="8.60">
        <route edges="8:2 2:0 0:1 1:3 3:7"/>
    </vehicle>
    <vehicle id="88" depart="8.80">
        <route edges="3:1 1:0 0:2"/>
    </vehicle>
    <vehicle id="89" depart="8.90">
        <route edges="0:1 1:3 3:7"/>
    </vehicle>
    <vehicle id="90" depart="9.00">
        <route edges="8:2 2:0 0:1 1:5"/>
    </vehicle>
    <vehicle id="94" depart="9.40">
        <route edges="8:2 2:0 0:1 1:3"/>
    </vehicle>
    <vehicle id="95" depart="9.50">
        <route edges="7:3 3:1"/>
    </vehicle>
    <vehicle id="96" depart="9.60">
        <route edges="7:3 3:1 1:0 0:2 2:8"/>
    </vehicle>
    <vehicle id="100" depart="10.00">
        <route edges="8:2 2:0 0:1 1:3 3:7"/>
    </vehicle>
    <vehicle id="101" depart="10.10">
        <route edges="7:3 3:1 1:0 0:2"/>
    </vehicle>
    <vehicle id="102" depart="10.20">
        <route edges="8:2 2:0 0:1 1:3"/>
    </vehicle>
    <vehicle id="103" depart="10.30">
        <route edges="2:0"/>
    </vehicle>
    <vehicle id="104" depart="10.40">
        <route edges="8:2 2:0 0:1 1:5 5:6"/>
    </vehicle>
    <vehicle id="106" depart="10.60">
        <route edges="8:2 2:0 0:1 1:3 3:7"/>
    </vehicle>
    <vehicle id="110" depart="11.00">
        <route edges="7:3 3:1 1:0"/>
    </vehicle>
    <vehicle id="111" depart="11.10">
        <route edges="7:3 3:1 1:5 5:6"/>
    </vehicle>
    <vehicle id="112" depart="11.20">
        <route edges="7:3 3:1 1:0 0:2"/>
    </vehicle>
    <vehicle id="113" depart="11.30">
        <route edges="6:5 5:1 1:0 0:9 9:10"/>
    </vehicle>
    <vehicle id="114" depart="11.40">
        <route edges="10:9 9:0 0:2 2:8"/>
    </vehicle>
    <vehicle id="117" depart="11.70">
        <route edges="2:0 0:1 1:5"/>
    </vehicle>
    <vehicle id="118" depart="11.80">
        <route edges="1:3 3:7"/>
    </vehicle>
    <vehicle id="120" depart="12.00">
        <route edges="1:3"/>
    </vehicle>
    <vehicle id="123" depart="12.30">
        <route edges="1:3"/>
    </vehicle>
    <vehicle id="124" depart="12.40">
        <route edges="7:3 3:1 1:0 0:9"/>
    </vehicle>
    <vehicle id="125" depart="12.50">
        <route edges="2:0"/>
    </vehicle>
    <vehicle id="126" depart="12.60">
        <route edges="10:9 9:0 0:2"/>
    </vehicle>
    <vehicle id="129" depart="12.90">
        <route edges="3:1 1:0"/>
    </vehicle>
    <vehicle id="130" depart="13.00">
        <route edges="8:2 2:0 0:1 1:3 3:7"/>
    </vehicle>
    <vehicle id="131" depart="13.10">
        <route edges="10:9 9:0 0:2 2:8"/>
    </vehicle>
    <vehicle id="133" depart="13.30">
        <route edges="10:9 9:0 0:1 1:3"/>
    </vehicle>
    <vehicle id="134" depart="13.40">
        <route edges="9:0 0:2 2:8"/>
    </vehicle>
    <vehicle id="136" depart="13.60">
        <route edges="6:5 5:1 1:0"/>
    </vehicle>
    <vehicle id="137" depart="13.70">
        <route edges="2:0 0:1 1:3"/>
    </vehicle>
    <vehicle id="138" depart="13.80">
        <route edges="8:2 2:0"/>
    </vehicle>
    <vehicle id="139" depart="13.90">
        <route edges="8:2 2:0 0:9"/>
    </vehicle>
    <vehicle id="140" depart="14.00">
        <route edges="7:3 3:1 1:0 0:2 2:8"/>
    </vehicle>
    <vehicle id="142" depart="14.20">
        <route edges="3:1 1:5 5:6"/>
    </vehicle>
    <vehicle id="145" depart="14.50">
        <route edges="8:2 2:0 0:1 1:3"/>
    </vehicle>
    <vehicle id="147" depart="14.70">
        <route edges="7:3 3:1 1:0 0:9"/>
    </vehicle>
    <vehicle id="155" depart="15.50">
        <route edges="5:1 1:0"/>
    </vehicle>
    <vehicle id="157" depart="15.70">
        <route edges="3:1 1:0 0:9 9:10"/>
    </vehicle>
    <vehicle id="158" depart="15.80">
        <route edges="7:3 3:1 1:0 0:2 2:8"/>
    </vehicle>
    <vehicle id="163" depart="16.30">
        <route edges="1:0 0:9 9:10"/>
    </vehicle>
    <vehicle id="164" depart="16.40">
        <route edges="8:2 2:0 0:1 1:3 3:7"/>
    </vehicle>
    <vehicle id="166" depart="16.60">
        <route edges="7:3 3:1 1:0 0:9 9:10"/>
    </vehicle>
    <vehicle id="169" depart="16.90">
        <route edges="10:9 9:0 0:1 1:5 5:6"/>
    </vehicle>
    <vehicle id="172" depart="17.20">
        <route edges="6:5 5:1 1:3 3:7"/>
    </vehicle>
    <vehicle id="175" depart="17.50">
        <route edges="7:3 3:1 1:0 0:9 9:10"/>
    </vehicle>
    <vehicle id="177" depart="17.70">
        <route edges="2:0 0:1 1:5 5:6"/>
    </vehicle>
    <vehicle id="178" depart="17.80">
        <route edges="3:1 1:0 0:2"/>
    </vehicle>
    <vehicle id="184" depart="18.40">
        <route edges="7:3 3:1 1:0 0:2 2:8"/>
    </vehicle>
    <vehicle id="185" depart="18.50">
        <route edges="0:2 2:8"/>
    </vehicle>
    <vehicle id="187" depart="18.70">
        <route edges="2:0 0:1 1:5"/>
    </vehicle>
    <vehicle id="192" depart="19.20">
        <route edges="7:3 3:1 1:5 5:6"/>
    </vehicle>
    <vehicle id="194" depart="19.40">
        <route edges="7:3 3:1 1:0 0:2"/>
    </vehicle>
    <vehicle id="195" depart="19.50">
        <route edges="8:2 2:0 0:1 1:5"/>
    </vehicle>
    <vehicle id="196" depart="19.60">
        <route edges="2:0 0:1 1:3 3:7"/>
    </vehicle>
    <vehicle id="197" depart="19.70">
        <route edges="8:2 2:0 0:1 1:3 3:7"/>
    </vehicle>
    <vehicle id="198" depart="19.80">
        <route edges="9:0 0:2 2:8"/>
    </vehicle>
    <vehicle id="199" depart="19.90">
        <route edges="0:2 2:8"/>
    </vehicle>
    <vehicle id="202" depart="20.20">
        <route edges="3:1 1:0 0:2 2:8"/>
    </vehicle>
    <vehicle id="206" depart="20.60">
        <route edges="10:9 9:0 0:1 1:3"/>
    </vehicle>
    <vehicle id="207" depart="20.70">
        <route edges="0:1 1:5"/>
    </vehicle>
    <vehicle id="208" depart="20.80">
        <route edges="0:2"/>
    </vehicle>
    <vehicle id="210" depart="21.00">
        <route edges="2:0"/>
    </vehicle>
    <vehicle id="212" depart="21.20">
        <route edges="9:0 0:2"/>
    </vehicle>
    <vehicle id="213" depart="21.30">
        <route edges="8:2 2:0 0:1 1:5 5:6"/>
    </vehicle>
    <vehicle id="216" depart="21.60">
        <route edges="3:1 1:0 0:9 9:10"/>
    </vehicle>
    <vehicle id="220" depart="22.00">
        <route edges="2:0 0:9"/>
    </vehicle>
    <vehicle id="221" depart="22.10">
        <route edges="10:9 9:0 0:2"/>
    </vehicle>
    <vehicle id="223" depart="22.30">
        <route edges="8:2 2:0 0:9 9:10"/>
    </vehicle>
    <vehicle id="224" depart="22.40">
        <route edges="6:5 5:1 1:0"/>
    </vehicle>
    <vehicle id="225" depart="22.50">
        <route edges="7:3 3:1 1:0 0:2 2:8"/>
    </vehicle>
    <vehicle id="226" depart="22.60">
        <route edges="10:9 9:0 0:1 1:3 3:7"/>
    </vehicle>
    <vehicle id="227" depart="22.70">
        <route edges="0:2"/>
    </vehicle>
    <vehicle id="230" depart="23.00">
        <route edges="6:5 5:1 1:0 0:2"/>
    </vehicle>
    <vehicle id="232" depart="23.20">
        <route edges="2:0 0:9 9:10"/>
    </vehicle>
    <vehicle id="234" depart="23.40">
        <route edges="1:0 0:2 2:8"/>
    </vehicle>
    <vehicle id="235" depart="23.50">
        <route edges="7:3 3:1 1:5 5:6"/>
    </vehicle>
    <vehicle id="236" depart="23.60">
        <route edges="10:9 9:0 0:1 1:3 3:7"/>
    </vehicle>
    <vehicle id="242" depart="24.20">
        <route edges="3:1 1:5"/>
    </vehicle>
    <vehicle id="249" depart="24.90">
        <route edges="8:2 2:0 0:9"/>
    </vehicle>
    <vehicle id="252" depart="25.20">
        <route edges="2:0 0:9 9:10"/>
    </vehicle>
    <vehicle id="254" depart="25.40">
        <route edges="10:9 9:0 0:1 1:5 5:6"/>
    </vehicle>
    <vehicle id="258" depart="25.80">
        <route edges="7:3 3:1 1:0 0:2 2:8"/>
    </vehicle>
    <vehicle id="261" depart="26.10">
        <route edges="9:0 0:1 1:3 3:7"/>
    </vehicle>
    <vehicle id="264" depart="26.40">
        <route edges="6:5 5:1 1:0 0:9"/>
    </vehicle>
    <vehicle id="265" depart="26.50">
        <route edges="9:0 0:1 1:5 5:6"/>
    </vehicle>
    <vehicle id="269" depart="26.90">
        <route edges="7:3 3:1 1:0 0:2 2:8"/>
    </vehicle>
    <vehicle id="273" depart="27.30">
        <route edges="7:3 3:1"/>
    </vehicle>
    <vehicle id="276" depart="27.60">
        <route edges="2:0 0:1"/>
    </vehicle>
    <vehicle id="280" depart="28.00">
        <route edges="7:3 3:1 1:0 0:9"/>
    </vehicle>
    <vehicle id="283" depart="28.30">
        <route edges="8:2 2:0 0:1 1:5 5:6"/>
    </vehicle>
    <vehicle id="284" depart="28.40">
        <route edges="1:0 0:2"/>
    </vehicle>
    <vehicle id="285" depart="28.50">
        <route edges="1:0 0:9 9:10"/>
    </vehicle>
    <vehicle id="287" depart="28.70">
        <route edges="0:1 1:3"/>
    </vehicle>
    <vehicle id="288" depart="28.80">
        <route edges="3:1 1:0 0:2"/>
    </vehicle>
    <vehicle id="289" depart="28.90">
        <route edges="1:0 0:2 2:8"/>
    </vehicle>
    <vehicle id="290" depart="29.00">
        <route edges="1:0 0:2 2:8"/>
    </vehicle>
    <vehicle id="295" depart="29.50">
        <route edges="7:3 3:1 1:0 0:9 9:10"/>
    </vehicle>
    <vehicle id="298" depart="29.80">
        <route edges="3:1 1:5"/>
    </vehicle>
    <vehicle id="299" depart="29.90">
        <route edges="1:3 3:7"/>
    </vehicle>
    <vehicle id="302" depart="30.20">
        <route edges="7:3 3:1 1:0 0:2 2:8"/>
    </vehicle>
    <vehicle id="303" depart="30.30">
        <route edges="5:1"/>
    </vehicle>
    <vehicle id="305" depart="30.50">
        <route edges="8:2 2:0"/>
    </vehicle>
    <vehicle id="306" depart="30.60">
        <route edges="5:1 1:3"/>
    </vehicle>
    <vehicle id="308" depart="30.80">
        <route edges="9:0 0:1 1:3"/>
    </vehicle>
    <vehicle id="310" depart="31.00">
        <route edges="6:5 5:1 1:0"/>
    </vehicle>
    <vehicle id="313" depart="31.30">
        <route edges="10:9 9:0 0:1 1:5 5:6"/>
    </vehicle>
    <vehicle id="314" depart="31.40">
        <route edges="7:3 3:1 1:0 0:2 2:8"/>
    </vehicle>
    <vehicle id="315" depart="31.50">
        <route edges="7:3 3:1 1:0 0:2 2:8"/>
    </vehicle>
    <vehicle id="316" depart="31.60">
        <route edges="2:0 0:1"/>
    </vehicle>
    <vehicle id="322" depart="32.20">
        <route edges="2:0 0:1 1:5 5:6"/>
    </vehicle>
    <vehicle id="325" depart="32.50">
        <route edges="3:1 1:0 0:2"/>
    </vehicle>
    <vehicle id="328" depart="32.80">
        <route edges="7:3 3:1 1:0 0:2 2:8"/>
    </vehicle>
    <vehicle id="330" depart="33.00">
        <route edges="6:5 5:1 1:0 0:2 2:8"/>
    </vehicle>
    <vehicle id="331" depart="33.10">
        <route edges="8:2 2:0 0:9"/>
    </vehicle>
    <vehicle id="332" depart="33.20">
        <route edges="7:3 3:1 1:0 0:2 2:8"/>
    </vehicle>
    <vehicle id="333" depart="33.30">
        <route edges="2:0"/>
    </vehicle>
    <vehicle id="335" depart="33.50">
        <route edges="3:1 1:5 5:6"/>
    </vehicle>
    <vehicle id="336" depart="33.60">
        <route edges="8:2 2:0 0:1 1:3 3:7"/>
    </vehicle>
    <vehicle id="337" depart="33.70">
        <route edges="10:9 9:0 0:1 1:5"/>
    </vehicle>
    <vehicle id="339" depart="33.90">
        <route edges="0:2 2:8"/>
    </vehicle>
    <vehicle id="340" depart="34.00">
        <route edges="7:3 3:1 1:0 0:2"/>
    </vehicle>
    <vehicle id="341" depart="34.10">
        <route edges="8:2 2:0 0:9 9:10"/>
    </vehicle>
    <vehicle id="343" depart="34.30">
        <route edges="1:0 0:2"/>
    </vehicle>
    <vehicle id="347" depart="34.70">
        <route edges="6:5 5:1 1:3 3:7"/>
    </vehicle>
    <vehicle id="348" depart="34.80">
        <route edges="8:2 2:0 0:1 1:5 5:6"/>
    </vehicle>
    <vehicle id="354" depart="35.40">
        <route edges="7:3 3:1 1:0 0:2 2:8"/>
    </vehicle>
    <vehicle id="356" depart="35.60">
        <route edges="3:1 1:0"/>
    </vehicle>
    <vehicle id="357" depart="35.70">
        <route edges="3:1 1:0 0:2 2:8"/>
    </vehicle>
    <vehicle id="362" depart="36.20">
        <route edges="1:0 0:9"/>
    </vehicle>
    <vehicle id="363" depart="36.30">
        <route edges="7:3 3:1 1:0 0:2 2:8"/>
    </vehicle>
    <vehicle id="364" depart="36.40">
        <route edges="1:3 3:7"/>
    </vehicle>
    <vehicle id="365" depart="36.50">
        <route edges="7:3 3:1 1:0 0:2"/>
    </vehicle>
    <vehicle id="366" depart="36.60">
        <route edges="0:2 2:8"/>
    </vehicle>
    <vehicle id="367" depart="36.70">
        <route edges="3:1"/>
    </vehicle>
    <vehicle id="371" depart="37.10">
        <route edges="3:1 1:0 0:2 2:8"/>
    </vehicle>
    <vehicle id="372" depart="37.20">
        <route edges="10:9 9:0 0:2 2:8"/>
    </vehicle>
    <vehicle id="373" depart="37.30">
        <route edges="1:3 3:7"/>
    </vehicle>
    <vehicle id="374" depart="37.40">
        <route edges="3:1 1:5"/>
    </vehicle>
    <vehicle id="380" depart="38.00">
        <route edges="6:5 5:1 1:0 0:2 2:8"/>
    </vehicle>
    <vehicle id="384" depart="38.40">
        <route edges="7:3 3:1 1:5"/>
    </vehicle>
    <vehicle id="385" depart="38.50">
        <route edges="6:5 5:1 1:0"/>
    </vehicle>
    <vehicle id="387" depart="38.70">
        <route edges="8:2 2:0 0:1 1:3 3:7"/>
    </vehicle>
    <vehicle id="389" depart="38.90">
        <route edges="9:0 0:2"/>
    </vehicle>
    <vehicle id="390" depart="39.00">
        <route edges="8:2 2:0 0:1 1:5 5:6"/>
    </vehicle>
    <vehicle id="394" depart="39.40">
        <route edges="5:1 1:3 3:7"/>
    </vehicle>
    <vehicle id="397" depart="39.70">
        <route edges="10:9 9:0"/>
    </vehicle>
    <vehicle id="398" depart="39.80">
        <route edges="1:0 0:9"/>
    </vehicle>
    <vehicle id="399" depart="39.90">
        <route edges="7:3 3:1 1:5 5:6"/>
    </vehicle>
    <vehicle id="400" depart="40.00">
        <route edges="2:0 0:1 1:5"/>
    </vehicle>
    <vehicle id="401" depart="40.10">
        <route edges="6:5 5:1 1:3 3:7"/>
    </vehicle>
    <vehicle id="404" depart="40.40">
        <route edges="7:3 3:1 1:0 0:2 2:8"/>
    </vehicle>
    <vehicle id="406" depart="40.60">
        <route edges="8:2 2:0 0:1 1:3 3:7"/>
    </vehicle>
    <vehicle id="407" depart="40.70">
        <route edges="3:1 1:0 0:2 2:8"/>
    </vehicle>
    <vehicle id="408" depart="40.80">
        <route edges="9:0 0:1"/>
    </vehicle>
    <vehicle id="409" depart="40.90">
        <route edges="1:0 0:2"/>
    </vehicle>
    <vehicle id="413" depart="41.30">
        <route edges="10:9 9:0 0:2 2:8"/>
    </vehicle>
    <vehicle id="415" depart="41.50">
        <route edges="6:5 5:1 1:0 0:2 2:8"/>
    </vehicle>
    <vehicle id="416" depart="41.60">
        <route edges="3:1 1:0 0:2"/>
    </vehicle>
    <vehicle id="420" depart="42.00">
        <route edges="2:0"/>
    </vehicle>
    <vehicle id="423" depart="42.30">
        <route edges="6:5 5:1 1:3 3:7"/>
    </vehicle>
    <vehicle id="430" depart="43.00">
        <route edges="8:2 2:0 0:1 1:3 3:7"/>
    </vehicle>
    <vehicle id="432" depart="43.20">
        <route edges="7:3 3:1 1:0 0:9 9:10"/>
    </vehicle>
    <vehicle id="433" depart="43.30">
        <route edges="6:5 5:1 1:3"/>
    </vehicle>
    <vehicle id="434" depart="43.40">
        <route edges="0:1 1:3 3:7"/>
    </vehicle>
    <vehicle id="436" depart="43.60">
        <route edges="7:3 3:1 1:0 0:2 2:8"/>
    </vehicle>
    <vehicle id="437" depart="43.70">
        <route edges="7:3 3:1 1:0 0:9 9:10"/>
    </vehicle>
    <vehicle id="438" depart="43.80">
        <route edges="10:9 9:0 0:1 1:3"/>
    </vehicle>
    <vehicle id="440" depart="44.00">
        <route edges="6:5 5:1 1:0 0:2"/>
    </vehicle>
    <vehicle id="445" depart="44.50">
        <route edges="1:0 0:2"/>
    </vehicle>
    <vehicle id="446" depart="44.60">
        <route edges="3:1"/>
    </vehicle>
    <vehicle id="447" depart="44.70">
        <route edges="6:5 5:1 1:0 0:2"/>
    </vehicle>
    <vehicle id="448" depart="44.80">
        <route edges="6:5 5:1 1:3 3:7"/>
    </vehicle>
    <vehicle id="449" depart="44.90">
        <route edges="9:0 0:1 1:3 3:7"/>
    </vehicle>
    <vehicle id="453" depart="45.30">
        <route edges="2:0 0:1 1:3"/>
    </vehicle>
    <vehicle id="455" depart="45.50">
        <route edges="7:3 3:1 1:0 0:9 9:10"/>
    </vehicle>
    <vehicle id="457" depart="45.70">
        <route edges="8:2 2:0 0:1 1:3"/>
    </vehicle>
    <vehicle id="458" depart="45.80">
        <route edges="0:2"/>
    </vehicle>
    <vehicle id="459" depart="45.90">
        <route edges="1:3 3:7"/>
    </vehicle>
    <vehicle id="461" depart="46.10">
        <route edges="2:0 0:9"/>
    </vehicle>
    <vehicle id="470" depart="47.00">
        <route edges="6:5 5:1 1:0 0:2 2:8"/>
    </vehicle>
    <vehicle id="472" depart="47.20">
        <route edges="3:1 1:5 5:6"/>
    </vehicle>
    <vehicle id="473" depart="47.30">
        <route edges="10:9 9:0 0:1 1:3 3:7"/>
    </vehicle>
    <vehicle id="474" depart="47.40">
        <route edges="8:2 2:0 0:9 9:10"/>
    </vehicle>
    <vehicle id="478" depart="47.80">
        <route edges="1:3"/>
    </vehicle>
    <vehicle id="479" depart="47.90">
        <route edges="8:2 2:0 0:9 9:10"/>
    </vehicle>
    <vehicle id="480" depart="48.00">
        <route edges="5:1 1:0 0:2 2:8"/>
    </vehicle>
    <vehicle id="483" depart="48.30">
        <route edges="8:2 2:0 0:1 1:3"/>
    </vehicle>
    <vehicle id="484" depart="48.40">
        <route edges="0:1"/>
    </vehicle>
    <vehicle id="485" depart="48.50">
        <route edges="8:2 2:0 0:1 1:3"/>
    </vehicle>
    <vehicle id="490" depart="49.00">
        <route edges="8:2 2:0 0:1 1:3 3:7"/>
    </vehicle>
    <vehicle id="492" depart="49.20">
        <route edges="3:1 1:5 5:6"/>
    </vehicle>
    <vehicle id="493" depart="49.30">
        <route edges="8:2 2:0 0:1 1:3 3:7"/>
    </vehicle>
    <vehicle id="497" depart="49.70">
        <route edges="7:3 3:1 1:0 0:2"/>
    </vehicle>
    <vehicle id="498" depart="49.80">
        <route edges="1:3 3:7"/>
    </vehicle>
    <vehicle id="502" depart="50.20">
        <route edges="1:0 0:2 2:8"/>
    </vehicle>
    <vehicle id="507" depart="50.70">
        <route edges="7:3 3:1 1:0 0:9 9:10"/>
    </vehicle>
    <vehicle id="510" depart="51.00">
        <route edges="7:3 3:1 1:0 0:2 2:8"/>
    </vehicle>
    <vehicle id="511" depart="51.10">
        <route edges="6:5 5:1 1:0 0:9 9:10"/>
    </vehicle>
    <vehicle id="512" depart="51.20">
        <route edges="6:5 5:1 1:3 3:7"/>
    </vehicle>
    <vehicle id="517" depart="51.70">
        <route edges="3:1 1:5 5:6"/>
    </vehicle>
    <vehicle id="522" depart="52.20">
        <route edges="9:0 0:2"/>
    </vehicle>
    <vehicle id="523" depart="52.30">
        <route edges="2:0 0:1 1:5 5:6"/>
    </vehicle>
    <vehicle id="525" depart="52.50">
        <route edges="6:5 5:1 1:3 3:7"/>
    </vehicle>
    <vehicle id="526" depart="52.60">
        <route edges="10:9 9:0 0:1 1:3 3:7"/>
    </vehicle>
    <vehicle id="527" depart="52.70">
        <route edges="1:3"/>
    </vehicle>
    <vehicle id="529" depart="52.90">
        <route edges="9:0 0:1"/>
    </vehicle>
    <vehicle id="530" depart="53.00">
        <route edges="1:0 0:2 2:8"/>
    </vehicle>
    <vehicle id="531" depart="53.10">
        <route edges="0:1 1:5 5:6"/>
    </vehicle>
    <vehicle id="532" depart="53.20">
        <route edges="1:3"/>
    </vehicle>
    <vehicle id="533" depart="53.30">
        <route edges="10:9 9:0 0:2"/>
    </vehicle>
    <vehicle id="534" depart="53.40">
        <route edges="5:1 1:3 3:7"/>
    </vehicle>
    <vehicle id="535" depart="53.50">
        <route edges="10:9 9:0 0:1"/>
    </vehicle>
    <vehicle id="536" depart="53.60">
        <route edges="7:3 3:1"/>
    </vehicle>
    <vehicle id="541" depart="54.10">
        <route edges="0:2 2:8"/>
    </vehicle>
    <vehicle id="543" depart="54.30">
        <route edges="7:3 3:1 1:5"/>
    </vehicle>
    <vehicle id="545" depart="54.50">
        <route edges="7:3 3:1 1:0 0:2 2:8"/>
    </vehicle>
    <vehicle id="546" depart="54.60">
        <route edges="7:3 3:1 1:0 0:9"/>
    </vehicle>
    <vehicle id="547" depart="54.70">
        <route edges="0:2"/>
    </vehicle>
    <vehicle id="548" depart="54.80">
        <route edges="9:0 0:1 1:3 3:7"/>
    </vehicle>
    <vehicle id="549" depart="54.90">
        <route edges="8:2 2:0 0:1 1:3 3:7"/>
    </vehicle>
    <vehicle id="550" depart="55.00">
        <route edges="7:3 3:1 1:0 0:2 2:8"/>
    </vehicle>
    <vehicle id="552" depart="55.20">
        <route edges="7:3 3:1 1:0 0:9 9:10"/>
    </vehicle>
    <vehicle id="555" depart="55.50">
        <route edges="1:3 3:7"/>
    </vehicle>
    <vehicle id="561" depart="56.10">
        <route edges="2:0"/>
    </vehicle>
    <vehicle id="563" depart="56.30">
        <route edges="10:9 9:0 0:2 2:8"/>
    </vehicle>
    <vehicle id="568" depart="56.80">
        <route edges="2:0 0:1 1:3 3:7"/>
    </vehicle>
    <vehicle id="570" depart="57.00">
        <route edges="6:5 5:1 1:0"/>
    </vehicle>
    <vehicle id="571" depart="57.10">
        <route edges="7:3 3:1 1:0 0:2 2:8"/>
    </vehicle>
    <vehicle id="572" depart="57.20">
        <route edges="7:3 3:1"/>
    </vehicle>
    <vehicle id="574" depart="57.40">
        <route edges="1:0 0:2 2:8"/>
    </vehicle>
    <vehicle id="576" depart="57.60">
        <route edges="7:3 3:1 1:0 0:2 2:8"/>
    </vehicle>
    <vehicle id="580" depart="58.00">
        <route edges="0:2"/>
    </vehicle>
    <vehicle id="582" depart="58.20">
        <route edges="8:2 2:0 0:1 1:3 3:7"/>
    </vehicle>
    <vehicle id="583" depart="58.30">
        <route edges="8:2 2:0 0:1"/>
    </vehicle>
    <vehicle id="591" depart="59.10">
        <route edges="7:3 3:1 1:0 0:9 9:10"/>
    </vehicle>
    <vehicle id="592" depart="59.20">
        <route edges="8:2 2:0 0:9 9:10"/>
    </vehicle>
    <vehicle id="596" depart="59.60">
        <route edges="8:2 2:0 0:9 9:10"/>
    </vehicle>
    <vehicle id="599" depart="59.90">
        <route edges="5:1"/>
    </vehicle>
    <vehicle id="601" depart="60.10">
        <route edges="3:1 1:0 0:9 9:10"/>
    </vehicle>
    <vehicle id="604" depart="60.40">
        <route edges="2:0 0:1 1:5"/>
    </vehicle>
    <vehicle id="606" depart="60.60">
        <route edges="8:2 2:0 0:1 1:3 3:7"/>
    </vehicle>
    <vehicle id="611" depart="61.10">
        <route edges="5:1 1:0 0:2 2:8"/>
    </vehicle>
    <vehicle id="612" depart="61.20">
        <route edges="3:1 1:5 5:6"/>
    </vehicle>
    <vehicle id="614" depart="61.40">
        <route edges="7:3 3:1 1:0 0:2 2:8"/>
    </vehicle>
    <vehicle id="615" depart="61.50">
        <route edges="7:3 3:1"/>
    </vehicle>
    <vehicle id="616" depart="61.60">
        <route edges="8:2 2:0 0:9"/>
    </vehicle>
    <vehicle id="617" depart="61.70">
        <route edges="8:2 2:0 0:1 1:3"/>
    </vehicle>
    <vehicle id="618" depart="61.80">
        <route edges="2:0 0:1 1:3"/>
    </vehicle>
    <vehicle id="620" depart="62.00">
        <route edges="7:3 3:1 1:0 0:2 2:8"/>
    </vehicle>
    <vehicle id="621" depart="62.10">
        <route edges="2:0 0:1 1:5 5:6"/>
    </vehicle>
    <vehicle id="626" depart="62.60">
        <route edges="8:2 2:0 0:1 1:5"/>
    </vehicle>
    <vehicle id="627" depart="62.70">
        <route edges="1:3"/>
    </vehicle>
    <vehicle id="628" depart="62.80">
        <route edges="8:2 2:0 0:1 1:3 3:7"/>
    </vehicle>
    <vehicle id="630" depart="63.00">
        <route edges="7:3 3:1 1:0 0:9 9:10"/>
    </vehicle>
    <vehicle id="631" depart="63.10">
        <route edges="8:2 2:0 0:1 1:3"/>
    </vehicle>
    <vehicle id="632" depart="63.20">
        <route edges="8:2 2:0 0:9 9:10"/>
    </vehicle>
    <vehicle id="633" depart="63.30">
        <route edges="7:3 3:1"/>
    </vehicle>
    <vehicle id="634" depart="63.40">
        <route edges="8:2 2:0 0:1 1:3 3:7"/>
    </vehicle>
    <vehicle id="635" depart="63.50">
        <route edges="5:1 1:3 3:7"/>
    </vehicle>
    <vehicle id="636" depart="63.60">
        <route edges="7:3 3:1 1:0 0:9 9:10"/>
    </vehicle>
    <vehicle id="637" depart="63.70">
        <route edges="6:5 5:1 1:0 0:2"/>
    </vehicle>
    <vehicle id="644" depart="64.40">
        <route edges="1:5 5:6"/>
    </vehicle>
    <vehicle id="646" depart="64.60">
        <route edges="0:9"/>
    </vehicle>
    <vehicle id="650" depart="65.00">
        <route edges="10:9 9:0 0:2 2:8"/>
    </vehicle>
    <vehicle id="652" depart="65.20">
        <route edges="8:2 2:0"/>
    </vehicle>
    <vehicle id="654" depart="65.40">
        <route edges="8:2 2:0 0:1 1:3 3:7"/>
    </vehicle>
    <vehicle id="657" depart="65.70">
        <route edges="10:9 9:0 0:2"/>
    </vehicle>
    <vehicle id="659" depart="65.90">
        <route edges="7:3 3:1 1:5"/>
    </vehicle>
    <vehicle id="660" depart="66.00">
        <route edges="9:0 0:2 2:8"/>
    </vehicle>
    <vehicle id="661" depart="66.10">
        <route edges="5:1 1:0 0:9 9:10"/>
    </vehicle>
    <vehicle id="662" depart="66.20">
        <route edges="8:2 2:0"/>
    </vehicle>
    <vehicle id="665" depart="66.50">