<?xml version="1.0" encoding="UTF-8"?>

<!-- generated on Thu Feb 13 14:16:14 2014 by SUMO duarouter Version 0.18.0
<?xml version="1.0" encoding="UTF-8"?>

<configuration xmlns:xsi="http://www.w3.org/2001/XMLSchema-instance" xsi:noNamespaceSchemaLocation="http://sumo.sf.net/xsd/duarouterConfiguration.xsd">

    <input>
        <net-file value="twinT.net.xml"/>
        <trip-files value="experimentos/twinT.p0.7.6.trips.xml"/>
    </input>

    <output>
        <output-file value="experimentos/twinT.p0.7.6.rou.xml"/>
    </output>

    <processing>
        <ignore-errors value="true"/>
    </processing>

    <random_number>
        <random value="true"/>
    </random_number>

</configuration>
-->

<routes xmlns:xsi="http://www.w3.org/2001/XMLSchema-instance" xsi:noNamespaceSchemaLocation="http://sumo.sf.net/xsd/routes_file.xsd">
    <vehicle id="1" depart="0.70">
        <route edges="8:2 2:0 0:9 9:10"/>
    </vehicle>
    <vehicle id="3" depart="2.10">
        <route edges="5:1 1:3 3:7"/>
    </vehicle>
    <vehicle id="6" depart="4.20">
        <route edges="3:1 1:0 0:2 2:8"/>
    </vehicle>
    <vehicle id="7" depart="4.90">
        <route edges="7:3 3:1 1:0 0:2 2:8"/>
    </vehicle>
    <vehicle id="15" depart="10.50">
        <route edges="8:2 2:0 0:1 1:3 3:7"/>
    </vehicle>
    <vehicle id="19" depart="13.30">
        <route edges="7:3 3:1 1:0 0:2"/>
    </vehicle>
    <vehicle id="20" depart="14.00">
        <route edges="8:2 2:0 0:1 1:5 5:6"/>
    </vehicle>
    <vehicle id="21" depart="14.70">
        <route edges="8:2 2:0 0:1 1:3 3:7"/>
    </vehicle>
    <vehicle id="22" depart="15.40">
        <route edges="6:5 5:1 1:0 0:2"/>
    </vehicle>
    <vehicle id="25" depart="17.50">
        <route edges="6:5 5:1 1:3"/>
    </vehicle>
    <vehicle id="30" depart="21.00">
        <route edges="7:3 3:1 1:0 0:9 9:10"/>
    </vehicle>
    <vehicle id="31" depart="21.70">
        <route edges="2:0 0:1 1:5 5:6"/>
    </vehicle>
    <vehicle id="32" depart="22.40">
        <route edges="8:2 2:0 0:1 1:3 3:7"/>
    </vehicle>
    <vehicle id="34" depart="23.80">
        <route edges="2:0 0:1 1:3"/>
    </vehicle>
    <vehicle id="35" depart="24.50">
        <route edges="1:3 3:7"/>
    </vehicle>
    <vehicle id="37" depart="25.90">
        <route edges="8:2 2:0 0:1"/>
    </vehicle>
    <vehicle id="38" depart="26.60">
        <route edges="6:5 5:1 1:0 0:9 9:10"/>
    </vehicle>
    <vehicle id="42" depart="29.40">
        <route edges="7:3 3:1 1:5"/>
    </vehicle>
    <vehicle id="45" depart="31.50">
        <route edges="7:3 3:1 1:0 0:2 2:8"/>
    </vehicle>
    <vehicle id="48" depart="33.60">
        <route edges="8:2 2:0 0:1 1:3"/>
    </vehicle>
    <vehicle id="49" depart="34.30">
        <route edges="0:1 1:3 3:7"/>
    </vehicle>
    <vehicle id="51" depart="35.70">
        <route edges="7:3 3:1 1:0 0:2 2:8"/>
    </vehicle>
    <vehicle id="52" depart="36.40">
        <route edges="8:2 2:0"/>
    </vehicle>
    <vehicle id="54" depart="37.80">
        <route edges="8:2 2:0"/>
    </vehicle>
    <vehicle id="56" depart="39.20">
        <route edges="9:0 0:1 1:3 3:7"/>
    </vehicle>
    <vehicle id="58" depart="40.60">
        <route edges="3:1 1:0 0:9"/>
    </vehicle>
    <vehicle id="59" depart="41.30">
        <route edges="9:0 0:1"/>
    </vehicle>
    <vehicle id="62" depart="43.40">
        <route edges="7:3 3:1 1:5 5:6"/>
    </vehicle>
    <vehicle id="63" depart="44.10">
        <route edges="5:1 1:0 0:9"/>
    </vehicle>
    <vehicle id="64" depart="44.80">
        <route edges="1:3 3:7"/>
    </vehicle>
    <vehicle id="66" depart="46.20">
        <route edges="8:2 2:0 0:1 1:3 3:7"/>
    </vehicle>
    <vehicle id="67" depart="46.90">
        <route edges="7:3 3:1 1:0 0:2"/>
    </vehicle>
    <vehicle id="68" depart="47.60">
        <route edges="6:5 5:1"/>
    </vehicle>
    <vehicle id="70" depart="49.00">
        <route edges="8:2 2:0 0:9"/>
    </vehicle>
    <vehicle id="74" depart="51.80">
        <route edges="2:0 0:1 1:3 3:7"/>
    </vehicle>
    <vehicle id="76" depart="53.20">
        <route edges="8:2 2:0 0:1 1:3 3:7"/>
    </vehicle>
    <vehicle id="77" depart="53.90">
        <route edges="0:1 1:5 5:6"/>
    </vehicle>
    <vehicle id="78" depart="54.60">
        <route edges="8:2 2:0 0:9 9:10"/>
    </vehicle>
    <vehicle id="81" depart="56.70">
        <route edges="6:5 5:1 1:0 0:2"/>
    </vehicle>
    <vehicle id="85" depart="59.50">
        <route edges="3:1 1:5"/>
    </vehicle>
    <vehicle id="88" depart="61.60">
        <route edges="7:3 3:1 1:0 0:2"/>
    </vehicle>
    <vehicle id="93" depart="65.10">
        <route edges="6:5 5:1 1:3"/>
    </vehicle>
    <vehicle id="95" depart="66.50">
        <route edges="8:2 2:0 0:1 1:3 3:7"/>
    </vehicle>
    <vehicle id="96" depart="67.20">
        <route edges="6:5 5:1 1:3 3:7"/>
    </vehicle>
    <vehicle id="97" depart="67.90">
        <route edges="0:1 1:5 5:6"/>
    </vehicle>
    <vehicle id="100" depart="70.00">
        <route edges="8:2 2:0"/>
    </vehicle>
    <vehicle id="102" depart="71.40">
        <route edges="10:9 9:0"/>
    </vehicle>
    <vehicle id="106" depart="74.20">
        <route edges="0:9"/>
    </vehicle>
    <vehicle id="107" depart="74.90">
        <route edges="9:0"/>
    </vehicle>
    <vehicle id="108" depart="75.60">
        <route edges="7:3 3:1 1:0 0:2"/>
    </vehicle>
    <vehicle id="109" depart="76.30">
        <route edges="8:2 2:0 0:1"/>
    </vehicle>
    <vehicle id="112" depart="78.40">
        <route edges="7:3 3:1 1:0 0:2"/>
    </vehicle>
    <vehicle id="113" depart="79.10">
        <route edges="8:2 2:0"/>
    </vehicle>
    <vehicle id="114" depart="79.80">
        <route edges="3:1 1:5"/>
    </vehicle>
    <vehicle id="117" depart="81.90">
        <route edges="0:2"/>
    </vehicle>
    <vehicle id="122" depart="85.40">
        <route edges="1:3 3:7"/>
    </vehicle>
    <vehicle id="125" depart="87.50">
        <route edges="7:3 3:1 1:0 0:9 9:10"/>
    </vehicle>
    <vehicle id="127" depart="88.90">
        <route edges="6:5 5:1 1:3 3:7"/>
    </vehicle>
    <vehicle id="128" depart="89.60">
        <route edges="9:0 0:1 1:5 5:6"/>
    </vehicle>
    <vehicle id="131" depart="91.70">
        <route edges="5:1 1:0 0:2 2:8"/>
    </vehicle>
    <vehicle id="133" depart="93.10">
        <route edges="9:0 0:1 1:5 5:6"/>
    </vehicle>
    <vehicle id="134" depart="93.80">
        <route edges="0:2 2:8"/>
    </vehicle>
    <vehicle id="138" depart="96.60">
        <route edges="10:9 9:0 0:2 2:8"/>
    </vehicle>
    <vehicle id="139" depart="97.30">
        <route edges="7:3 3:1 1:0"/>
    </vehicle>
    <vehicle id="144" depart="100.80">
        <route edges="7:3 3:1"/>
    </vehicle>
    <vehicle id="146" depart="102.20">
        <route edges="3:1 1:0 0:2 2:8"/>
    </vehicle>
    <vehicle id="147" depart="102.90">
        <route edges="5:1 1:0 0:2 2:8"/>
    </vehicle>
    <vehicle id="154" depart="107.80">
        <route edges="6:5 5:1 1:0 0:2 2:8"/>
    </vehicle>
    <vehicle id="157" depart="109.90">
        <route edges="1:0 0:9 9:10"/>
    </vehicle>
    <vehicle id="159" depart="111.30">
        <route edges="6:5 5:1 1:3 3:7"/>
    </vehicle>
    <vehicle id="160" depart="112.00">
        <route edges="7:3 3:1 1:0 0:9 9:10"/>
    </vehicle>
    <vehicle id="165" depart="115.50">
        <route edges="9:0 0:1"/>
    </vehicle>
    <vehicle id="169" depart="118.30">
        <route edges="8:2 2:0 0:9"/>
    </vehicle>
    <vehicle id="171" depart="119.70">
        <route edges="6:5 5:1 1:3 3:7"/>
    </vehicle>
    <vehicle id="172" depart="120.40">
        <route edges="7:3 3:1 1:5 5:6"/>
    </vehicle>
    <vehicle id="173" depart="121.10">
        <route edges="7:3 3:1 1:5 5:6"/>
    </vehicle>
    <vehicle id="174" depart="121.80">
        <route edges="7:3 3:1 1:0 0:9 9:10"/>
    </vehicle>
    <vehicle id="175" depart="122.50">
        <route edges="8:2 2:0 0:1 1:5 5:6"/>
    </vehicle>
    <vehicle id="177" depart="123.90">
        <route edges="5:1 1:0 0:2 2:8"/>
    </vehicle>
    <vehicle id="179" depart="125.30">
        <route edges="2:0 0:1 1:3 3:7"/>
    </vehicle>
    <vehicle id="180" depart="126.00">
        <route edges="8:2 2:0 0:1 1:3"/>
    </vehicle>
    <vehicle id="184" depart="128.80">
        <route edges="3:1 1:0 0:2"/>
    </vehicle>
    <vehicle id="185" depart="129.50">
        <route edges="3:1"/>
    </vehicle>
    <vehicle id="186" depart="130.20">
        <route edges="1:3 3:7"/>
    </vehicle>
    <vehicle id="187" depart="130.90">
        <route edges="3:1 1:0 0:9 9:10"/>
    </vehicle>
    <vehicle id="189" depart="132.30">
        <route edges="5:1 1:3 3:7"/>
    </vehicle>
    <vehicle id="198" depart="138.60">
        <route edges="2:0 0:9 9:10"/>
    </vehicle>
    <vehicle id="199" depart="139.30">
        <route edges="8:2 2:0 0:9"/>
    </vehicle>
    <vehicle id="200" depart="140.00">
        <route edges="2:0 0:1 1:3 3:7"/>
    </vehicle>
    <vehicle id="202" depart="141.40">
        <route edges="7:3 3:1 1:0 0:9 9:10"/>
    </vehicle>
    <vehicle id="204" depart="142.80">
        <route edges="3:1 1:0"/>
    </vehicle>
    <vehicle id="206" depart="144.20">
        <route edges="1:0 0:2 2:8"/>
    </vehicle>
    <vehicle id="209" depart="146.30">
        <route edges="10:9 9:0 0:1 1:5"/>
    </vehicle>
    <vehicle id="214" depart="149.80">
        <route edges="0:1 1:5 5:6"/>
    </vehicle>
    <vehicle id="223" depart="156.10">
        <route edges="7:3 3:1 1:0 0:9 9:10"/>
    </vehicle>
    <vehicle id="224" depart="156.80">
        <route edges="2:0 0:1 1:3"/>
    </vehicle>
    <vehicle id="225" depart="157.50">
        <route edges="8:2 2:0"/>
    </vehicle>
    <vehicle id="226" depart="158.20">
        <route edges="5:1 1:0 0:2"/>
    </vehicle>
    <vehicle id="227" depart="158.90">
        <route edges="0:9 9:10"/>
    </vehicle>
    <vehicle id="229" depart="160.30">
        <route edges="2:0 0:9"/>
    </vehicle>
    <vehicle id="230" depart="161.00">
        <route edges="10:9 9:0 0:1 1:5 5:6"/>
    </vehicle>
    <vehicle id="234" depart="163.80">
        <route edges="0:2"/>
    </vehicle>
    <vehicle id="236" depart="165.20">
        <route edges="7:3 3:1 1:0 0:2 2:8"/>
    </vehicle>
    <vehicle id="237" depart="165.90">
        <route edges="5:1 1:0 0:2"/>
    </vehicle>
    <vehicle id="238" depart="166.60">
        <route edges="5:1 1:3 3:7"/>
    </vehicle>
    <vehicle id="240" depart="168.00">
        <route edges="1:3"/>
    </vehicle>
    <vehicle id="241" depart="168.70">
        <route edges="5:1 1:0"/>
    </vehicle>
    <vehicle id="242" depart="169.40">
        <route edges="7:3 3:1 1:0 0:2 2:8"/>
    </vehicle>
    <vehicle id="245" depart="171.50">
        <route edges="7:3 3:1 1:5"/>
    </vehicle>
    <vehicle id="246" depart="172.20">
        <route edges="1:0 0:9 9:10"/>
    </vehicle>
    <vehicle id="249" depart="174.30">
        <route edges="8:2 2:0 0:1 1:3"/>
    </vehicle>
    <vehicle id="253" depart="177.10">
        <route edges="5:1 1:3 3:7"/>
    </vehicle>
    <vehicle id="255" depart="178.50">
        <route edges="7:3 3:1 1:0 0:2"/>
    </vehicle>
    <vehicle id="257" depart="179.90">
        <route edges="2:0"/>
    </vehicle>
    <vehicle id="261" depart="182.70">
        <route edges="9:0 0:1 1:5 5:6"/>
    </vehicle>
    <vehicle id="262" depart="183.40">
        <route edges="3:1 1:0 0:2"/>
    </vehicle>
    <vehicle id="263" depart="184.10">
        <route edges="1:3 3:7"/>
    </vehicle>
    <vehicle id="264" depart="184.80">
        <route edges="9:0 0:1 1:5 5:6"/>
    </vehicle>
    <vehicle id="265" depart="185.50">
        <route edges="1:3 3:7"/>
    </vehicle>
    <vehicle id="268" depart="187.60">
        <route edges="5:1 1:0 0:9 9:10"/>
    </vehicle>
    <vehicle id="278" depart="194.60">
        <route edges="7:3 3:1 1:0"/>
    </vehicle>
    <vehicle id="285" depart="199.50">
        <route edges="8:2 2:0 0:1 1:3 3:7"/>
    </vehicle>
    <vehicle id="287" depart="200.90">
        <route edges="8:2 2:0"/>
    </vehicle>
    <vehicle id="289" depart="202.30">
        <route edges="0:1 1:5"/>
    </vehicle>
    <vehicle id="291" depart="203.70">
        <route edges="10:9 9:0 0:2 2:8"/>
    </vehicle>
    <vehicle id="292" depart="204.40">
        <route edges="8:2 2:0 0:1 1:3"/>
    </vehicle>
    <vehicle id="294" depart="205.80">
        <route edges="9:0 0:1 1:5 5:6"/>
    </vehicle>
    <vehicle id="295" depart="206.50">
        <route edges="9:0 0:1 1:3 3:7"/>
    </vehicle>
    <vehicle id="298" depart="208.60">
        <route edges="5:1"/>
    </vehicle>
    <vehicle id="299" depart="209.30">
        <route edges="6:5 5:1 1:0 0:2 2:8"/>
    </vehicle>
    <vehicle id="301" depart="210.70">
        <route edges="8:2 2:0 0:1 1:3 3:7"/>
    </vehicle>
    <vehicle id="302" depart="211.40">
        <route edges="0:1 1:5 5:6"/>
    </vehicle>
    <vehicle id="304" depart="212.80">
        <route edges="2:0 0:1 1:3 3:7"/>
    </vehicle>
    <vehicle id="305" depart="213.50">
        <route edges="5:1 1:3 3:7"/>
    </vehicle>
    <vehicle id="306" depart="214.20">
        <route edges="1:3 3:7"/>
    </vehicle>
    <vehicle id="309" depart="216.30">
        <route edges="8:2 2:0 0:1"/>
    </vehicle>
    <vehicle id="313" depart="219.10">
        <route edges="7:3 3:1 1:5"/>
    </vehicle>
    <vehicle id="316" depart="221.20">
        <route edges="1:3 3:7"/>
    </vehicle>
    <vehicle id="318" depart="222.60">
        <route edges="1:3 3:7"/>
    </vehicle>
    <vehicle id="321" depart="224.70">
        <route edges="8:2 2:0 0:9 9:10"/>
    </vehicle>
    <vehicle id="322" depart="225.40">
        <route edges="0:1 1:5 5:6"/>
    </vehicle>
    <vehicle id="323" depart="226.10">
        <route edges="7:3 3:1 1:0 0:2 2:8"/>
    </vehicle>
    <vehicle id="324" depart="226.80">
        <route edges="3:1 1:5"/>
    </vehicle>
    <vehicle id="329" depart="230.30">
        <route edges="0:1 1:3"/>
    </vehicle>
    <vehicle id="330" depart="231.00">
        <route edges="1:0 0:2 2:8"/>
    </vehicle>
    <vehicle id="331" depart="231.70">
        <route edges="6:5 5:1 1:3 3:7"/>
    </vehicle>
    <vehicle id="333" depart="233.10">
        <route edges="8:2 2:0 0:1 1:3 3:7"/>
    </vehicle>
    <vehicle id="334" depart="233.80">
        <route edges="8:2 2:0 0:1 1:3 3:7"/>
    </vehicle>
    <vehicle id="335" depart="234.50">
        <route edges="8:2 2:0 0:1 1:3 3:7"/>
    </vehicle>
    <vehicle id="337" depart="235.90">
        <route edges="6:5 5:1 1:0"/>
    </vehicle>
    <vehicle id="338" depart="236.60">
        <route edges="7:3 3:1 1:0 0:2 2:8"/>
    </vehicle>
    <vehicle id="343" depart="240.10">
        <route edges="9:0 0:1 1:3 3:7"/>
    </vehicle>
    <vehicle id="344" depart="240.80">
        <route edges="8:2 2:0 0:1 1:5 5:6"/>
    </vehicle>
    <vehicle id="346" depart="242.20">
        <route edges="8:2 2:0 0:1 1:5 5:6"/>
    </vehicle>
    <vehicle id="349" depart="244.30">
        <route edges="0:2"/>
    </vehicle>
    <vehicle id="353" depart="247.10">
        <route edges="8:2 2:0"/>
    </vehicle>
    <vehicle id="356" depart="249.20">
        <route edges="7:3 3:1 1:5"/>
    </vehicle>
    <vehicle id="357" depart="249.90">
        <route edges="6:5 5:1"/>
    </vehicle>
    <vehicle id="358" depart="250.60">
        <route edges="10:9 9:0 0:1 1:3 3:7"/>
    </vehicle>
    <vehicle id="360" depart="252.00">
        <route edges="7:3 3:1 1:0"/>
    </vehicle>
    <vehicle id="361" depart="252.70">
        <route edges="3:1 1:0 0:2"/>
    </vehicle>
    <vehicle id="362" depart="253.40">
        <route edges="1:3"/>
    </vehicle>
    <vehicle id="363" depart="254.10">
        <route edges="7:3 3:1 1:5 5:6"/>
    </vehicle>
    <vehicle id="364" depart="254.80">
        <route edges="2:0 0:1 1:3"/>
    </vehicle>
    <vehicle id="365" depart="255.50">
        <route edges="10:9 9:0 0:1 1:5"/>
    </vehicle>
    <vehicle id="369" depart="258.30">
        <route edges="5:1 1:3 3:7"/>
    </vehicle>
    <vehicle id="374" depart="261.80">
        <route edges="7:3 3:1 1:0 0:2"/>
    </vehicle>
    <vehicle id="377" depart="263.90">
        <route edges="8:2 2:0"/>
    </vehicle>
    <vehicle id="379" depart="265.30">
        <route edges="5:1 1:3 3:7"/>
    </vehicle>
    <vehicle id="380" depart="266.00">
        <route edges="8:2 2:0 0:1 1:3"/>
    </vehicle>
    <vehicle id="381" depart="266.70">
        <route edges="8:2 2:0"/>
    </vehicle>
    <vehicle id="384" depart="268.80">
        <route edges="8:2 2:0"/>
    </vehicle>
    <vehicle id="389" depart="272.30">
        <route edges="3:1 1:0 0:2 2:8"/>
    </vehicle>
    <vehicle id="390" depart="273.00">
        <route edges="8:2 2:0 0:1 1:5"/>
    </vehicle>
    <vehicle id="391" depart="273.70">
        <route edges="2:0 0:1 1:5 5:6"/>
    </vehicle>
    <vehicle id="394" depart="275.80">
        <route edges="5:1 1:3 3:7"/>
    </vehicle>
    <vehicle id="396" depart="277.20">
        <route edges="10:9 9:0 0:1 1:3 3:7"/>
    </vehicle>
    <vehicle id="398" depart="278.60">
        <route edges="2:0 0:1 1:5"/>
    </vehicle>
    <vehicle id="399" depart="279.30">
        <route edges="10:9 9:0 0:2"/>
    </vehicle>
    <vehicle id="401" depart="280.70">
        <route edges="3:1"/>
    </vehicle>
    <vehicle id="405" depart="283.50">
        <route edges="10:9 9:0 0:2 2:8"/>
    </vehicle>
    <vehicle id="406" depart="284.20">
        <route edges="0:2 2:8"/>
    </vehicle>
    <vehicle id="407" depart="284.90">
        <route edges="3:1"/>
    </vehicle>
    <vehicle id="408" depart="285.60">
        <route edges="6:5 5:1 1:0 0:2"/>
    </vehicle>
    <vehicle id="412" depart="288.40">
        <route edges="10:9 9:0 0:1 1:3 3:7"/>
    </vehicle>
    <vehicle id="414" depart="289.80">
        <route edges="10:9 9:0 0:1 1:3 3:7"/>
    </vehicle>
    <vehicle id="418" depart="292.60">
        <route edges="0:2 2:8"/>
    </vehicle>
    <vehicle id="420" depart="294.00">
        <route edges="9:0 0:2"/>
    </vehicle>
    <vehicle id="421" depart="294.70">
        <route edges="9:0 0:2 2:8"/>
    </vehicle>
    <vehicle id="422" depart="295.40">
        <route edges="2:0 0:1 1:5 5:6"/>
    </vehicle>
    <vehicle id="423" depart="296.10">
        <route edges="8:2 2:0 0:1 1:3 3:7"/>
    </vehicle>
    <vehicle id="427" depart="298.90">
        <route edges="8:2 2:0"/>
    </vehicle>
    <vehicle id="430" depart="301.00">
        <route edges="6:5 5:1 1:0 0:2 2:8"/>
    </vehicle>
    <vehicle id="431" depart="301.70">
        <route edges="0:1 1:3"/>
    </vehicle>
    <vehicle id="434" depart="303.80">
        <route edges="1:0 0:2 2:8"/>
    </vehicle>
    <vehicle id="436" depart="305.20">
        <route edges="10:9 9:0 0:1"/>
    </vehicle>
    <vehicle id="438" depart="306.60">
        <route edges="6:5 5:1 1:3"/>
    </vehicle>
    <vehicle id="439" depart="307.30">
        <route edges="2:0"/>
    </vehicle>
    <vehicle id="440" depart="308.00">
        <route edges="8:2 2:0 0:1 1:5 5:6"/>
    </vehicle>
    <vehicle id="442" depart="309.40">
        <route edges="6:5 5:1 1:3"/>
    </vehicle>
    <vehicle id="446" depart="312.20">
        <route edges="8:2 2:0 0:1"/>
    </vehicle>
    <vehicle id="450" depart="315.00">
        <route edges="0:2"/>
    </vehicle>
    <vehicle id="451" depart="315.70">
        <route edges="10:9 9:0 0:1 1:3"/>
    </vehicle>
    <vehicle id="456" depart="319.20">
        <route edges="10:9 9:0 0:2 2:8"/>
    </vehicle>
    <vehicle id="461" depart="322.70">
        <route edges="3:1 1:0 0:9 9:10"/>
    </vehicle>
    <vehicle id="462" depart="323.40">
        <route edges="8:2 2:0 0:1 1:5 5:6"/>
    </vehicle>
    <vehicle id="468" depart="327.60">
        <route edges="1:3 3:7"/>
    </vehicle>
    <vehicle id="471" depart="329.70">
        <route edges="8:2 2:0 0:1"/>
    </vehicle>
    <vehicle id="477" depart="333.90">
        <route edges="1:3 3:7"/>
    </vehicle>
    <vehicle id="479" depart="335.30">
        <route edges="5:1 1:3 3:7"/>
    </vehicle>
    <vehicle id="484" depart="338.80">
        <route edges="6:5 5:1 1:0 0:2 2:8"/>
    </vehicle>
    <vehicle id="486" depart="340.20">
        <route edges="10:9 9:0 0:2 2:8"/>
    </vehicle>
    <vehicle id="487" depart="340.90">
        <route edges="10:9 9:0 0:1"/>
    </vehicle>
    <vehicle id="488" depart="341.60">
        <route edges="5:1 1:0 0:9 9:10"/>
    </vehicle>
    <vehicle id="489" depart="342.30">
        <route edges="0:2 2:8"/>
    </vehicle>
    <vehicle id="490" depart="343.00">
        <route edges="9:0 0:2 2:8"/>
    </vehicle>
    <vehicle id="491" depart="343.70">
        <route edges="6:5 5:1 1:0 0:9 9:10"/>
    </vehicle>
    <vehicle id="492" depart="344.40">
        <route edges="7:3 3:1 1:0"/>
    </vehicle>
    <vehicle id="494" depart="345.80">
        <route edges="7:3 3:1 1:0 0:2 2:8"/>
    </vehicle>
    <vehicle id="495" depart="346.50">
        <route edges="3:1 1:0 0:9 9:10"/>
    </vehicle>
    <vehicle id="499" depart="349.30">
        <route edges="10:9 9:0 0:1"/>
    </vehicle>
    <vehicle id="501" depart="350.70">
        <route edges="7:3 3:1 1:0 0:2"/>
    </vehicle>
    <vehicle id="504" depart="352.80">
        <route edges="3:1 1:0 0:2 2:8"/>
    </vehicle>
    <vehicle id="505" depart="353.50">
        <route edges="8:2 2:0"/>
    </vehicle>
    <vehicle id="506" depart="354.20">
        <route edges="8:2 2:0 0:1 1:3"/>
    </vehicle>
    <vehicle id="507" depart="354.90">
        <route edges="6:5 5:1 1:0 0:2"/>
    </vehicle>
    <vehicle id="508" depart="355.60">
        <route edges="0:2 2:8"/>
    </vehicle>
    <vehicle id="509" depart="356.30">
        <route edges="7:3 3:1 1:5 5:6"/>
    </vehicle>
    <vehicle id="510" depart="357.00">
        <route edges="7:3 3:1 1:0 0:2 2:8"/>
    </vehicle>
    <vehicle id="512" depart="358.40">
        <route edges="8:2 2:0 0:1 1:5"/>
    </vehicle>
    <vehicle id="513" depart="359.10">
        <route edges="6:5 5:1 1:0 0:2 2:8"/>
    </vehicle>
    <vehicle id="515" depart="360.50">
        <route edges="2:0 0:1 1:3 3:7"/>
    </vehicle>
    <vehicle id="517" depart="361.90">
        <route edges="7:3 3:1 1:0"/>
    </vehicle>
    <vehicle id="518" depart="362.60">
        <route edges="1:3 3:7"/>
    </vehicle>
    <vehicle id="521" depart="364.70">
        <route edges="3:1"/>
    </vehicle>
    <vehicle id="522" depart="365.40">
        <route edges="9:0"/>
    </vehicle>
    <vehicle id="531" depart="371.70">
        <route edges="7:3 3:1 1:0 0:2 2:8"/>
    </vehicle>
    <vehicle id="532" depart="372.40">
        <route edges="2:0 0:1 1:3 3:7"/>
    </vehicle>
    <vehicle id="534" depart="373.80">
        <route edges="6:5 5:1 1:3"/>
    </vehicle>
    <vehicle id="535" depart="374.50">
        <route edges="6:5 5:1 1:0 0:2 2:8"/>
    </vehicle>
    <vehicle id="536" depart="375.20">
        <route edges="6:5 5:1 1:0 0:2 2:8"/>
    </vehicle>
    <vehicle id="539" depart="377.30">
        <route edges="9:0 0:1 1:3 3:7"/>
    </vehicle>
    <vehicle id="542" depart="379.40">
        <route edges="7:3 3:1 1:0 0:2 2:8"/>
    </vehicle>
    <vehicle id="544" depart="380.80">
        <route edges="0:1 1:3"/>
    </vehicle>
    <vehicle id="545" depart="381.50">
        <route edges="7:3 3:1 1:0 0:2"/>
    </vehicle>
    <vehicle id="546" depart="382.20">
        <route edges="7:3 3:1 1:0 0:2 2:8"/>
    </vehicle>
    <vehicle id="551" depart="385.70">
        <route edges="10:9 9:0 0:1 1:3 3:7"/>
    </vehicle>
    <vehicle id="552" depart="386.40">
        <route edges="10:9 9:0"/>
    </vehicle>
    <vehicle id="553" depart="387.10">
        <route edges="0:1 1:5 5:6"/>
    </vehicle>
    <vehicle id="554" depart="387.80">
        <route edges="2:0 0:9 9:10"/>
    </vehicle>
    <vehicle id="556" depart="389.20">
        <route edges="8:2 2:0 0:1 1:5"/>
    </vehicle>
    <vehicle id="557" depart="389.90">
        <route edges="8:2 2:0 0:1 1:3"/>
    </vehicle>
    <vehicle id="560" depart="392.00">
        <route edges="0:2"/>
    </vehicle>
    <vehicle id="563" depart="394.10">
        <route edges="10:9 9:0 0:1 1:3 3:7"/>
    </vehicle>
    <vehicle id="564" depart="394.80">
        <route edges="1:0 0:9"/>
    </vehicle>
    <vehicle id="566" depart="396.20">
        <route edges="8:2 2:0"/>
    </vehicle>
    <vehicle id="568" depart="397.60">
        <route edges="2:0 0:1 1:3"/>
    </vehicle>
    <vehicle id="569" depart="398.30">
        <route edges="8:2 2:0 0:1 1:3 3:7"/>
    </vehicle>
    <vehicle id="570" depart="399.00">
        <route edges="8:2 2:0 0:1 1:3 3:7"/>
    </vehicle>
    <vehicle id="572" depart="400.40">
        <route edges="8:2 2:0 0:1 1:3 3:7"/>
    </vehicle>
    <vehicle id="573" depart="401.10">
        <route edges="6:5 5:1 1:3 3:7"/>
    </vehicle>
    <vehicle id="575" depart="402.50">
        <route edges="2:0 0:1 1:3"/>
    </vehicle>
    <vehicle id="578" depart="404.60">
        <route edges="7:3 3:1"/>
    </vehicle>
    <vehicle id="587" depart="410.90">
        <route edges="7:3 3:1 1:0 0:2 2:8"/>
    </vehicle>
    <vehicle id="588" depart="411.60">
        <route edges="7:3 3:1 1:0 0:2 2:8"/>
    </vehicle>
    <vehicle id="589" depart="412.30">
        <route edges="10:9 9:0 0:2 2:8"/>
    </vehicle>
    <vehicle id="592" depart="414.40">
        <route edges="7:3 3:1 1:0 0:2 2:8"/>
    </vehicle>
    <vehicle id="593" depart="415.10">
        <route edges="0:2 2:8"/>
    </vehicle>
    <vehicle id="595" depart="416.50">
        <route edges="5:1 1:0 0:2 2:8"/>
    </vehicle>
    <vehicle id="597" depart="417.90">
        <route edges="6:5 5:1 1:0 0:9 9:10"/>
    </vehicle>
    <vehicle id="598" depart="418.60">
        <route edges="3:1 1:0 0:2 2:8"/>
    </vehicle>
    <vehicle id="599" depart="419.30">
        <route edges="3:1 1:0 0:2"/>
    </vehicle>
    <vehicle id="604" depart="422.80">
        <route edges="9:0 0:2"/>
    </vehicle>
    <vehicle id="606" depart="424.20">
        <route edges="10:9 9:0 0:1 1:3"/>
    </vehicle>
    <vehicle id="607" depart="424.90">
        <route edges="0:9 9:10"/>
    </vehicle>
    <vehicle id="611" depart="427.70">
        <route edges="3:1 1:0 0:9"/>
    </vehicle>
    <vehicle id="612" depart="428.40">
        <route edges="8:2 2:0 0:1 1:5 5:6"/>
    </vehicle>
    <vehicle id="614" depart="429.80">
        <route edges="6:5 5:1"/>
    </vehicle>
    <vehicle id="615" depart="430.50">
        <route edges="10:9 9:0 0:2 2:8"/>
    </vehicle>
    <vehicle id="616" depart="431.20">
        <route edges="10:9 9:0 0:1 1:5 5:6"/>
    </vehicle>
    <vehicle id="618" depart="432.60">
        <route edges="7:3 3:1 1:0 0:9 9:10"/>
    </vehicle>
    <vehicle id="622" depart="435.40">
        <route edges="8:2 2:0"/>
    </vehicle>
    <vehicle id="623" depart="436.10">
        <route edges="6:5 5:1 1:3 3:7"/>
    </vehicle>
    <vehicle id="624" depart="436.80">
        <route edges="8:2 2:0 0:1 1:5 5:6"/>
    </vehicle>
    <vehicle id="625" depart="437.50">
        <route edges="8:2 2:0 0:1 1:3 3:7"/>
    </vehicle>
    <vehicle id="626" depart="438.20">
        <route edges="0:1"/>
    </vehicle>
    <vehicle id="628" depart="439.60">
        <route edges="5:1 1:0 0:9 9:10"/>
    </vehicle>
    <vehicle id="629" depart="440.30">
        <route edges="8:2 2:0 0:1 1:3"/>
    </vehicle>
    <vehicle id="630" depart="441.00">
        <route edges="7:3 3:1 1:0 0:2 2:8"/>
    </vehicle>
    <vehicle id="632" depart="442.40">
        <route edges="6:5 5:1 1:3 3:7"/>
    </vehicle>
    <vehicle id="634" depart="443.80">
        <route edges="10:9 9:0 0:2 2:8"/>
    </vehicle>
    <vehicle id="636" depart="445.20">
        <route edges="6:5 5:1 1:0 0:2"/>
    </vehicle>
    <vehicle id="638" depart="446.60">
        <route edges="10:9 9:0 0:2 2:8"/>
    </vehicle>
    <vehicle id="645" depart="451.50">
        <route edges="3:1 1:0 0:2 2:8"/>
    </vehicle>
    <vehicle id="647" depart="452.90">
        <route edges="8:2 2:0 0:1 1:3"/>
    </vehicle>
    <vehicle id="651" depart="455.70">
        <route edges="3:1 1:0 0:9 9:10"/>
    </vehicle>
    <vehicle id="654" depart="457.80">
        <route edges="8:2 2:0 0:1"/>
    </vehicle>
    <vehicle id="655" depart="458.50">
        <route edges="9:0 0:2 2:8"/>
    </vehicle>
    <vehicle id="656" depart="459.20">
        <route edges="0:2 2:8"/>
    </vehicle>
    <vehicle id="658" depart="460.60">
        <route edges="7:3 3:1 1:0 0:2 2:8"/>
    </vehicle>
    <vehicle id="659" depart="461.30">
        <route edges="3:1 1:0 0:2"/>
    </vehicle>
    <vehicle id="660" depart="462.00">
        <route edges="2:0 0:1 1:3 3:7"/>
    </vehicle>
    <vehicle id="661" depart="462.70">
        <route edges="6:5 5:1 1:0 0:2"/>
    </vehicle>
    <vehicle id="663" depart="464.10">
        <route edges="2:0 0:1"/>
    </vehicle>
    <vehicle id="664" depart="464.80">
        <route edges="6:5 5:1 1:3 3:7"/>
    </vehicle>
    <vehicle id="669" depart="468.30">
        <route edges="10:9 9:0 0:2"/>
    </vehicle>
    <vehicle id="671" depart="469.70">
        <route edges="2:0 0:1 1:3 3:7"/>
    </vehicle>
    <vehicle id="672" depart="470.40">
        <route edges="2:0 0:1 1:3 3:7"/>
    </vehicle>
    <vehicle id="673" depart="471.10">
        <route edges="2:0 0:1 1:3 3:7"/>
    </vehicle>
    <vehicle id="674" depart="471.80">
        <route edges="7:3 3:1 1:0 0:2 2:8"/>
    </vehicle>
    <vehicle id="676" depart="473.20">
        <route edges="7:3 3:1 1:5"/>
    </vehicle>
    <vehicle id="677" depart="473.90">
        <route edges="6:5 5:1 1:3 3:7"/>
    </vehicle>
    <vehicle id="678" depart="474.60">
        <route edges="10:9 9:0 0:2 2:8"/>
    </vehicle>
    <vehicle id="679" depart="475.30">
        <route edges="10:9 9:0 0:1 1:3 3:7"/>
    </vehicle>
    <vehicle id="682" depart="477.40">
        <route edges="6:5 5:1 1:3 3:7"/>