<?xml version="1.0" encoding="UTF-8"?>

<!-- generated on Thu Feb 13 14:16:32 2014 by SUMO duarouter Version 0.18.0
<?xml version="1.0" encoding="UTF-8"?>

<configuration xmlns:xsi="http://www.w3.org/2001/XMLSchema-instance" xsi:noNamespaceSchemaLocation="http://sumo.sf.net/xsd/duarouterConfiguration.xsd">

    <input>
        <net-file value="twinT.net.xml"/>
        <trip-files value="experimentos/twinT.p1.0.5.trips.xml"/>
    </input>

    <output>
        <output-file value="experimentos/twinT.p1.0.5.rou.xml"/>
    </output>

    <processing>
        <ignore-errors value="true"/>
    </processing>

    <random_number>
        <random value="true"/>
    </random_number>

</configuration>
-->

<routes xmlns:xsi="http://www.w3.org/2001/XMLSchema-instance" xsi:noNamespaceSchemaLocation="http://sumo.sf.net/xsd/routes_file.xsd">
    <vehicle id="1" depart="1.00">
        <route edges="8:2 2:0 0:1 1:3"/>
    </vehicle>
    <vehicle id="2" depart="2.00">
        <route edges="0:2 2:8"/>
    </vehicle>
    <vehicle id="4" depart="4.00">
        <route edges="5:1 1:3"/>
    </vehicle>
    <vehicle id="6" depart="6.00">
        <route edges="8:2 2:0 0:1 1:5 5:6"/>
    </vehicle>
    <vehicle id="8" depart="8.00">
        <route edges="7:3 3:1 1:0"/>
    </vehicle>
    <vehicle id="10" depart="10.00">
        <route edges="7:3 3:1 1:0 0:9"/>
    </vehicle>
    <vehicle id="13" depart="13.00">
        <route edges="7:3 3:1"/>
    </vehicle>
    <vehicle id="16" depart="16.00">
        <route edges="7:3 3:1 1:0 0:2"/>
    </vehicle>
    <vehicle id="18" depart="18.00">
        <route edges="7:3 3:1 1:0 0:2 2:8"/>
    </vehicle>
    <vehicle id="19" depart="19.00">
        <route edges="9:0 0:1 1:3 3:7"/>
    </vehicle>
    <vehicle id="20" depart="20.00">
        <route edges="5:1 1:0 0:2 2:8"/>
    </vehicle>
    <vehicle id="21" depart="21.00">
        <route edges="5:1"/>
    </vehicle>
    <vehicle id="22" depart="22.00">
        <route edges="8:2 2:0 0:1 1:3 3:7"/>
    </vehicle>
    <vehicle id="26" depart="26.00">
        <route edges="3:1 1:0 0:9 9:10"/>
    </vehicle>
    <vehicle id="27" depart="27.00">
        <route edges="8:2 2:0 0:9 9:10"/>
    </vehicle>
    <vehicle id="28" depart="28.00">
        <route edges="8:2 2:0 0:1 1:3 3:7"/>
    </vehicle>
    <vehicle id="29" depart="29.00">
        <route edges="5:1 1:3"/>
    </vehicle>
    <vehicle id="33" depart="33.00">
        <route edges="5:1 1:3"/>
    </vehicle>
    <vehicle id="37" depart="37.00">
        <route edges="5:1 1:0 0:2"/>
    </vehicle>
    <vehicle id="38" depart="38.00">
        <route edges="10:9 9:0 0:1 1:3 3:7"/>
    </vehicle>
    <vehicle id="39" depart="39.00">
        <route edges="10:9 9:0 0:2 2:8"/>
    </vehicle>
    <vehicle id="40" depart="40.00">
        <route edges="7:3 3:1 1:5 5:6"/>
    </vehicle>
    <vehicle id="43" depart="43.00">
        <route edges="7:3 3:1"/>
    </vehicle>
    <vehicle id="44" depart="44.00">
        <route edges="3:1 1:5 5:6"/>
    </vehicle>
    <vehicle id="49" depart="49.00">
        <route edges="0:2 2:8"/>
    </vehicle>
    <vehicle id="50" depart="50.00">
        <route edges="8:2 2:0 0:1 1:3"/>
    </vehicle>
    <vehicle id="51" depart="51.00">
        <route edges="10:9 9:0 0:2 2:8"/>
    </vehicle>
    <vehicle id="55" depart="55.00">
        <route edges="3:1 1:0 0:2 2:8"/>
    </vehicle>
    <vehicle id="57" depart="57.00">
        <route edges="2:0 0:9 9:10"/>
    </vehicle>
    <vehicle id="60" depart="60.00">
        <route edges="10:9 9:0 0:2 2:8"/>
    </vehicle>
    <vehicle id="63" depart="63.00">
        <route edges="8:2 2:0 0:1 1:3"/>
    </vehicle>
    <vehicle id="64" depart="64.00">
        <route edges="5:1 1:0 0:2 2:8"/>
    </vehicle>
    <vehicle id="69" depart="69.00">
        <route edges="6:5 5:1 1:3 3:7"/>
    </vehicle>
    <vehicle id="70" depart="70.00">
        <route edges="6:5 5:1 1:0 0:9 9:10"/>
    </vehicle>
    <vehicle id="72" depart="72.00">
        <route edges="8:2 2:0"/>
    </vehicle>
    <vehicle id="73" depart="73.00">
        <route edges="7:3 3:1 1:0 0:9 9:10"/>
    </vehicle>
    <vehicle id="77" depart="77.00">
        <route edges="7:3 3:1 1:5"/>
    </vehicle>
    <vehicle id="78" depart="78.00">
        <route edges="2:0 0:1 1:3 3:7"/>
    </vehicle>
    <vehicle id="79" depart="79.00">
        <route edges="8:2 2:0 0:1 1:5 5:6"/>
    </vehicle>
    <vehicle id="82" depart="82.00">
        <route edges="8:2 2:0 0:9 9:10"/>
    </vehicle>
    <vehicle id="85" depart="85.00">
        <route edges="0:2 2:8"/>
    </vehicle>
    <vehicle id="89" depart="89.00">
        <route edges="1:0"/>
    </vehicle>
    <vehicle id="90" depart="90.00">
        <route edges="2:0 0:1"/>
    </vehicle>
    <vehicle id="91" depart="91.00">
        <route edges="8:2 2:0 0:1 1:5"/>
    </vehicle>
    <vehicle id="92" depart="92.00">
        <route edges="7:3 3:1 1:5"/>
    </vehicle>
    <vehicle id="95" depart="95.00">
        <route edges="1:0 0:2 2:8"/>
    </vehicle>
    <vehicle id="97" depart="97.00">
        <route edges="8:2 2:0 0:1 1:3 3:7"/>
    </vehicle>
    <vehicle id="98" depart="98.00">
        <route edges="9:0 0:1 1:5 5:6"/>
    </vehicle>
    <vehicle id="99" depart="99.00">
        <route edges="7:3 3:1"/>
    </vehicle>
    <vehicle id="101" depart="101.00">
        <route edges="1:5 5:6"/>
    </vehicle>
    <vehicle id="102" depart="102.00">
        <route edges="10:9 9:0 0:1 1:5 5:6"/>
    </vehicle>
    <vehicle id="104" depart="104.00">
        <route edges="7:3 3:1 1:0"/>
    </vehicle>
    <vehicle id="105" depart="105.00">
        <route edges="8:2 2:0 0:9 9:10"/>
    </vehicle>
    <vehicle id="106" depart="106.00">
        <route edges="7:3 3:1 1:0 0:2 2:8"/>
    </vehicle>
    <vehicle id="107" depart="107.00">
        <route edges="7:3 3:1 1:0 0:2 2:8"/>
    </vehicle>
    <vehicle id="109" depart="109.00">
        <route edges="8:2 2:0 0:1 1:3"/>
    </vehicle>
    <vehicle id="111" depart="111.00">
        <route edges="7:3 3:1 1:0 0:2 2:8"/>
    </vehicle>
    <vehicle id="113" depart="113.00">
        <route edges="6:5 5:1 1:0 0:2 2:8"/>
    </vehicle>
    <vehicle id="116" depart="116.00">
        <route edges="8:2 2:0 0:1 1:3"/>
    </vehicle>
    <vehicle id="118" depart="118.00">
        <route edges="1:3"/>
    </vehicle>
    <vehicle id="119" depart="119.00">
        <route edges="5:1 1:0 0:2"/>
    </vehicle>
    <vehicle id="121" depart="121.00">
        <route edges="6:5 5:1 1:3 3:7"/>
    </vehicle>
    <vehicle id="122" depart="122.00">
        <route edges="7:3 3:1 1:0 0:2 2:8"/>
    </vehicle>
    <vehicle id="123" depart="123.00">
        <route edges="8:2 2:0 0:1 1:3 3:7"/>
    </vehicle>
    <vehicle id="124" depart="124.00">
        <route edges="8:2 2:0 0:1 1:3 3:7"/>
    </vehicle>
    <vehicle id="126" depart="126.00">
        <route edges="5:1 1:0 0:2 2:8"/>
    </vehicle>
    <vehicle id="127" depart="127.00">
        <route edges="7:3 3:1"/>
    </vehicle>
    <vehicle id="128" depart="128.00">
        <route edges="9:0 0:1 1:5 5:6"/>
    </vehicle>
    <vehicle id="131" depart="131.00">
        <route edges="8:2 2:0 0:9"/>
    </vehicle>
    <vehicle id="133" depart="133.00">
        <route edges="8:2 2:0"/>
    </vehicle>
    <vehicle id="134" depart="134.00">
        <route edges="0:2"/>
    </vehicle>
    <vehicle id="136" depart="136.00">
        <route edges="5:1 1:3 3:7"/>
    </vehicle>
    <vehicle id="141" depart="141.00">
        <route edges="7:3 3:1 1:0 0:2 2:8"/>
    </vehicle>
    <vehicle id="142" depart="142.00">
        <route edges="1:0 0:9"/>
    </vehicle>
    <vehicle id="144" depart="144.00">
        <route edges="0:9 9:10"/>
    </vehicle>
    <vehicle id="145" depart="145.00">
        <route edges="8:2 2:0"/>
    </vehicle>
    <vehicle id="147" depart="147.00">
        <route edges="7:3 3:1 1:5"/>
    </vehicle>
    <vehicle id="149" depart="149.00">
        <route edges="6:5 5:1 1:3"/>
    </vehicle>
    <vehicle id="150" depart="150.00">
        <route edges="7:3 3:1 1:0 0:9"/>
    </vehicle>
    <vehicle id="151" depart="151.00">
        <route edges="0:2 2:8"/>
    </vehicle>
    <vehicle id="152" depart="152.00">
        <route edges="0:1 1:3"/>
    </vehicle>
    <vehicle id="153" depart="153.00">
        <route edges="8:2 2:0 0:9"/>
    </vehicle>
    <vehicle id="155" depart="155.00">
        <route edges="0:1 1:3"/>
    </vehicle>
    <vehicle id="156" depart="156.00">
        <route edges="3:1 1:0 0:2"/>
    </vehicle>
    <vehicle id="157" depart="157.00">
        <route edges="8:2 2:0"/>
    </vehicle>
    <vehicle id="158" depart="158.00">
        <route edges="6:5 5:1 1:0 0:2 2:8"/>
    </vehicle>
    <vehicle id="160" depart="160.00">
        <route edges="7:3 3:1"/>
    </vehicle>
    <vehicle id="170" depart="170.00">
        <route edges="8:2 2:0 0:1"/>
    </vehicle>
    <vehicle id="172" depart="172.00">
        <route edges="3:1 1:0 0:2 2:8"/>
    </vehicle>
    <vehicle id="175" depart="175.00">
        <route edges="2:0 0:9"/>
    </vehicle>
    <vehicle id="178" depart="178.00">
        <route edges="7:3 3:1 1:0 0:2 2:8"/>
    </vehicle>
    <vehicle id="179" depart="179.00">
        <route edges="2:0 0:1 1:3"/>
    </vehicle>
    <vehicle id="184" depart="184.00">
        <route edges="8:2 2:0 0:1 1:5 5:6"/>
    </vehicle>
    <vehicle id="186" depart="186.00">
        <route edges="7:3 3:1 1:5 5:6"/>
    </vehicle>
    <vehicle id="188" depart="188.00">
        <route edges="2:0 0:9 9:10"/>
    </vehicle>
    <vehicle id="189" depart="189.00">
        <route edges="7:3 3:1 1:0 0:9 9:10"/>
    </vehicle>
    <vehicle id="190" depart="190.00">
        <route edges="5:1 1:0 0:2 2:8"/>
    </vehicle>
    <vehicle id="192" depart="192.00">
        <route edges="8:2 2:0 0:9 9:10"/>
    </vehicle>
    <vehicle id="193" depart="193.00">
        <route edges="8:2 2:0 0:1"/>
    </vehicle>
    <vehicle id="196" depart="196.00">
        <route edges="9:0 0:2 2:8"/>
    </vehicle>
    <vehicle id="200" depart="200.00">
        <route edges="8:2 2:0 0:1 1:3 3:7"/>
    </vehicle>
    <vehicle id="201" depart="201.00">
        <route edges="8:2 2:0"/>
    </vehicle>
    <vehicle id="202" depart="202.00">
        <route edges="0:1 1:3 3:7"/>
    </vehicle>
    <vehicle id="203" depart="203.00">
        <route edges="6:5 5:1 1:0 0:9 9:10"/>
    </vehicle>
    <vehicle id="204" depart="204.00">
        <route edges="10:9 9:0 0:1 1:3 3:7"/>
    </vehicle>
    <vehicle id="207" depart="207.00">
        <route edges="9:0 0:1 1:3"/>
    </vehicle>
    <vehicle id="210" depart="210.00">
        <route edges="2:0"/>
    </vehicle>
    <vehicle id="211" depart="211.00">
        <route edges="1:3"/>
    </vehicle>
    <vehicle id="214" depart="214.00">
        <route edges="2:0 0:9 9:10"/>
    </vehicle>
    <vehicle id="216" depart="216.00">
        <route edges="7:3 3:1 1:0 0:2 2:8"/>
    </vehicle>
    <vehicle id="218" depart="218.00">
        <route edges="2:0 0:1 1:5"/>
    </vehicle>
    <vehicle id="219" depart="219.00">
        <route edges="9:0 0:2 2:8"/>
    </vehicle>
    <vehicle id="220" depart="220.00">
        <route edges="10:9 9:0 0:1 1:5"/>
    </vehicle>
    <vehicle id="222" depart="222.00">
        <route edges="1:5"/>
    </vehicle>
    <vehicle id="226" depart="226.00">
        <route edges="0:1 1:3 3:7"/>
    </vehicle>
    <vehicle id="228" depart="228.00">
        <route edges="7:3 3:1 1:0 0:2 2:8"/>
    </vehicle>
    <vehicle id="229" depart="229.00">
        <route edges="10:9 9:0 0:2 2:8"/>
    </vehicle>
    <vehicle id="233" depart="233.00">
        <route edges="8:2 2:0"/>
    </vehicle>
    <vehicle id="234" depart="234.00">
        <route edges="1:3"/>
    </vehicle>
    <vehicle id="235" depart="235.00">
        <route edges="1:0 0:2 2:8"/>
    </vehicle>
    <vehicle id="238" depart="238.00">
        <route edges="6:5 5:1 1:0 0:2 2:8"/>
    </vehicle>
    <vehicle id="240" depart="240.00">
        <route edges="7:3 3:1 1:0 0:2 2:8"/>
    </vehicle>
    <vehicle id="241" depart="241.00">
        <route edges="10:9 9:0 0:1 1:3"/>
    </vehicle>
    <vehicle id="242" depart="242.00">
        <route edges="0:1"/>
    </vehicle>
    <vehicle id="243" depart="243.00">
        <route edges="2:0 0:1 1:3"/>
    </vehicle>
    <vehicle id="244" depart="244.00">
        <route edges="5:1 1:0"/>
    </vehicle>
    <vehicle id="245" depart="245.00">
        <route edges="8:2 2:0 0:1 1:3"/>
    </vehicle>
    <vehicle id="247" depart="247.00">
        <route edges="6:5 5:1 1:3"/>
    </vehicle>
    <vehicle id="249" depart="249.00">
        <route edges="5:1 1:3"/>
    </vehicle>
    <vehicle id="250" depart="250.00">
        <route edges="0:9"/>
    </vehicle>
    <vehicle id="251" depart="251.00">
        <route edges="5:1 1:0"/>
    </vehicle>
    <vehicle id="253" depart="253.00">
        <route edges="1:3 3:7"/>
    </vehicle>
    <vehicle id="254" depart="254.00">
        <route edges="2:0 0:1"/>
    </vehicle>
    <vehicle id="256" depart="256.00">
        <route edges="7:3 3:1 1:0 0:2 2:8"/>
    </vehicle>
    <vehicle id="257" depart="257.00">
        <route edges="8:2 2:0 0:1 1:5"/>
    </vehicle>
    <vehicle id="258" depart="258.00">
        <route edges="7:3 3:1 1:0 0:2 2:8"/>
    </vehicle>
    <vehicle id="259" depart="259.00">
        <route edges="5:1 1:0 0:2 2:8"/>
    </vehicle>
    <vehicle id="262" depart="262.00">
        <route edges="0:1"/>
    </vehicle>
    <vehicle id="264" depart="264.00">
        <route edges="1:3"/>
    </vehicle>
    <vehicle id="267" depart="267.00">
        <route edges="7:3 3:1 1:5"/>
    </vehicle>
    <vehicle id="268" depart="268.00">
        <route edges="8:2 2:0 0:1 1:3"/>
    </vehicle>
    <vehicle id="269" depart="269.00">
        <route edges="1:0 0:2 2:8"/>
    </vehicle>
    <vehicle id="271" depart="271.00">
        <route edges="7:3 3:1 1:0"/>
    </vehicle>
    <vehicle id="272" depart="272.00">
        <route edges="8:2 2:0 0:1 1:3"/>
    </vehicle>
    <vehicle id="274" depart="274.00">
        <route edges="10:9 9:0 0:2 2:8"/>
    </vehicle>
    <vehicle id="276" depart="276.00">
        <route edges="2:0 0:1"/>
    </vehicle>
    <vehicle id="277" depart="277.00">
        <route edges="7:3 3:1 1:5 5:6"/>
    </vehicle>
    <vehicle id="280" depart="280.00">
        <route edges="7:3 3:1 1:0 0:2 2:8"/>
    </vehicle>
    <vehicle id="283" depart="283.00">
        <route edges="0:9 9:10"/>
    </vehicle>
    <vehicle id="290" depart="290.00">
        <route edges="10:9 9:0"/>
    </vehicle>
    <vehicle id="291" depart="291.00">
        <route edges="8:2 2:0 0:1 1:5 5:6"/>
    </vehicle>
    <vehicle id="292" depart="292.00">
        <route edges="0:2 2:8"/>
    </vehicle>
    <vehicle id="293" depart="293.00">
        <route edges="9:0 0:1 1:3 3:7"/>
    </vehicle>
    <vehicle id="294" depart="294.00">
        <route edges="2:0 0:9 9:10"/>
    </vehicle>
    <vehicle id="296" depart="296.00">
        <route edges="2:0 0:9 9:10"/>
    </vehicle>
    <vehicle id="298" depart="298.00">
        <route edges="9:0 0:2 2:8"/>
    </vehicle>
    <vehicle id="300" depart="300.00">
        <route edges="8:2 2:0 0:1 1:5 5:6"/>
    </vehicle>
    <vehicle id="301" depart="301.00">
        <route edges="2:0 0:1 1:5"/>
    </vehicle>
    <vehicle id="302" depart="302.00">
        <route edges="7:3 3:1 1:0 0:2"/>
    </vehicle>
    <vehicle id="305" depart="305.00">
        <route edges="6:5 5:1 1:0 0:9 9:10"/>
    </vehicle>
    <vehicle id="306" depart="306.00">
        <route edges="0:2"/>
    </vehicle>
    <vehicle id="310" depart="310.00">
        <route edges="8:2 2:0 0:1 1:5 5:6"/>
    </vehicle>
    <vehicle id="312" depart="312.00">
        <route edges="2:0 0:1 1:3 3:7"/>
    </vehicle>
    <vehicle id="314" depart="314.00">
        <route edges="7:3 3:1 1:5 5:6"/>
    </vehicle>
    <vehicle id="315" depart="315.00">
        <route edges="10:9 9:0 0:2 2:8"/>
    </vehicle>
    <vehicle id="316" depart="316.00">
        <route edges="0:9 9:10"/>
    </vehicle>
    <vehicle id="322" depart="322.00">
        <route edges="2:0"/>
    </vehicle>
    <vehicle id="323" depart="323.00">
        <route edges="5:1 1:0 0:2 2:8"/>
    </vehicle>
    <vehicle id="324" depart="324.00">
        <route edges="0:1 1:3 3:7"/>
    </vehicle>
    <vehicle id="325" depart="325.00">
        <route edges="3:1 1:5"/>
    </vehicle>
    <vehicle id="331" depart="331.00">
        <route edges="2:0 0:1 1:3"/>
    </vehicle>
    <vehicle id="333" depart="333.00">
        <route edges="1:0 0:2"/>
    </vehicle>
    <vehicle id="334" depart="334.00">
        <route edges="1:0 0:9 9:10"/>
    </vehicle>
    <vehicle id="335" depart="335.00">
        <route edges="7:3 3:1 1:0 0:9 9:10"/>
    </vehicle>
    <vehicle id="336" depart="336.00">
        <route edges="2:0 0:1 1:5"/>
    </vehicle>
    <vehicle id="340" depart="340.00">
        <route edges="8:2 2:0 0:1 1:3 3:7"/>
    </vehicle>
    <vehicle id="341" depart="341.00">
        <route edges="1:0"/>
    </vehicle>
    <vehicle id="343" depart="343.00">
        <route edges="7:3 3:1"/>
    </vehicle>
    <vehicle id="346" depart="346.00">
        <route edges="9:0 0:1 1:3 3:7"/>
    </vehicle>
    <vehicle id="347" depart="347.00">
        <route edges="3:1 1:5 5:6"/>
    </vehicle>
    <vehicle id="351" depart="351.00">
        <route edges="0:2"/>
    </vehicle>
    <vehicle id="352" depart="352.00">
        <route edges="6:5 5:1 1:3 3:7"/>
    </vehicle>
    <vehicle id="353" depart="353.00">
        <route edges="9:0 0:1 1:3 3:7"/>
    </vehicle>
    <vehicle id="356" depart="356.00">
        <route edges="3:1 1:0 0:9"/>
    </vehicle>
    <vehicle id="357" depart="357.00">
        <route edges="6:5 5:1 1:3 3:7"/>
    </vehicle>
    <vehicle id="358" depart="358.00">
        <route edges="8:2 2:0 0:1 1:5 5:6"/>
    </vehicle>
    <vehicle id="359" depart="359.00">
        <route edges="7:3 3:1 1:0 0:2 2:8"/>
    </vehicle>
    <vehicle id="360" depart="360.00">
        <route edges="7:3 3:1"/>
    </vehicle>
    <vehicle id="364" depart="364.00">
        <route edges="3:1 1:0 0:9 9:10"/>
    </vehicle>
    <vehicle id="365" depart="365.00">
        <route edges="5:1 1:3 3:7"/>
    </vehicle>
    <vehicle id="366" depart="366.00">
        <route edges="5:1 1:0"/>
    </vehicle>
    <vehicle id="367" depart="367.00">
        <route edges="7:3 3:1 1:0 0:2 2:8"/>
    </vehicle>
    <vehicle id="368" depart="368.00">
        <route edges="7:3 3:1 1:0 0:2"/>
    </vehicle>
    <vehicle id="370" depart="370.00">
        <route edges="10:9 9:0 0:2 2:8"/>
    </vehicle>
    <vehicle id="371" depart="371.00">
        <route edges="1:0 0:2"/>
    </vehicle>
    <vehicle id="372" depart="372.00">
        <route edges="9:0 0:1 1:3 3:7"/>
    </vehicle>
    <vehicle id="373" depart="373.00">
        <route edges="8:2 2:0 0:1 1:5 5:6"/>
    </vehicle>
    <vehicle id="375" depart="375.00">
        <route edges="7:3 3:1 1:0 0:2 2:8"/>
    </vehicle>
    <vehicle id="376" depart="376.00">
        <route edges="6:5 5:1 1:0 0:2 2:8"/>
    </vehicle>
    <vehicle id="378" depart="378.00">
        <route edges="3:1 1:0 0:2 2:8"/>
    </vehicle>
    <vehicle id="379" depart="379.00">
        <route edges="3:1 1:0"/>
    </vehicle>
    <vehicle id="383" depart="383.00">
        <route edges="8:2 2:0 0:1 1:5"/>
    </vehicle>
    <vehicle id="384" depart="384.00">
        <route edges="8:2 2:0"/>
    </vehicle>
    <vehicle id="385" depart="385.00">
        <route edges="3:1"/>
    </vehicle>
    <vehicle id="386" depart="386.00">
        <route edges="6:5 5:1 1:3"/>
    </vehicle>
    <vehicle id="387" depart="387.00">
        <route edges="0:1 1:5 5:6"/>
    </vehicle>
    <vehicle id="389" depart="389.00">
        <route edges="2:0 0:1 1:3 3:7"/>
    </vehicle>
    <vehicle id="392" depart="392.00">
        <route edges="6:5 5:1 1:3 3:7"/>
    </vehicle>
    <vehicle id="394" depart="394.00">
        <route edges="7:3 3:1 1:0 0:2 2:8"/>
    </vehicle>
    <vehicle id="396" depart="396.00">
        <route edges="0:1"/>
    </vehicle>
    <vehicle id="400" depart="400.00">
        <route edges="7:3 3:1 1:0 0:2"/>
    </vehicle>
    <vehicle id="402" depart="402.00">
        <route edges="9:0 0:2"/>
    </vehicle>
    <vehicle id="405" depart="405.00">
        <route edges="8:2 2:0 0:1 1:3 3:7"/>
    </vehicle>
    <vehicle id="406" depart="406.00">
        <route edges="8:2 2:0 0:9"/>
    </vehicle>
    <vehicle id="410" depart="410.00">
        <route edges="1:0 0:2"/>
    </vehicle>
    <vehicle id="411" depart="411.00">
        <route edges="3:1 1:5"/>
    </vehicle>
    <vehicle id="414" depart="414.00">
        <route edges="7:3 3:1 1:5"/>
    </vehicle>
    <vehicle id="416" depart="416.00">
        <route edges="8:2 2:0 0:1 1:3 3:7"/>
    </vehicle>
    <vehicle id="420" depart="420.00">
        <route edges="10:9 9:0 0:2 2:8"/>
    </vehicle>
    <vehicle id="421" depart="421.00">
        <route edges="7:3 3:1 1:0 0:2"/>
    </vehicle>
    <vehicle id="422" depart="422.00">
        <route edges="2:0 0:1 1:3"/>
    </vehicle>
    <vehicle id="424" depart="424.00">
        <route edges="8:2 2:0 0:1 1:5 5:6"/>
    </vehicle>
    <vehicle id="426" depart="426.00">
        <route edges="10:9 9:0 0:1 1:3 3:7"/>
    </vehicle>
    <vehicle id="431" depart="431.00">
        <route edges="3:1"/>
    </vehicle>
    <vehicle id="432" depart="432.00">
        <route edges="6:5 5:1 1:0 0:2 2:8"/>
    </vehicle>
    <vehicle id="434" depart="434.00">
        <route edges="8:2 2:0 0:1 1:3 3:7"/>
    </vehicle>
    <vehicle id="436" depart="436.00">
        <route edges="10:9 9:0 0:1 1:5 5:6"/>
    </vehicle>
    <vehicle id="442" depart="442.00">
        <route edges="0:1 1:3 3:7"/>
    </vehicle>
    <vehicle id="443" depart="443.00">
        <route edges="0:1 1:3 3:7"/>
    </vehicle>
    <vehicle id="449" depart="449.00">
        <route edges="6:5 5:1 1:3 3:7"/>
    </vehicle>
    <vehicle id="452" depart="452.00">
        <route edges="5:1 1:0 0:2 2:8"/>
    </vehicle>
    <vehicle id="454" depart="454.00">
        <route edges="3:1 1:0 0:2"/>
    </vehicle>
    <vehicle id="455" depart="455.00">
        <route edges="1:5"/>
    </vehicle>
    <vehicle id="458" depart="458.00">
        <route edges="7:3 3:1 1:0 0:2 2:8"/>
    </vehicle>
    <vehicle id="460" depart="460.00">
        <route edges="8:2 2:0 0:1 1:5"/>
    </vehicle>
    <vehicle id="461" depart="461.00">
        <route edges="0:2 2:8"/>
    </vehicle>
    <vehicle id="463" depart="463.00">
        <route edges="9:0 0:1 1:3"/>
    </vehicle>
    <vehicle id="464" depart="464.00">
        <route edges="8:2 2:0 0:9"/>
    </vehicle>
    <vehicle id="465" depart="465.00">
        <route edges="1:0 0:2 2:8"/>
    </vehicle>
    <vehicle id="468" depart="468.00">
        <route edges="7:3 3:1 1:0 0:2 2:8"/>
    </vehicle>
    <vehicle id="470" depart="470.00">
        <route edges="3:1"/>
    </vehicle>
    <vehicle id="471" depart="471.00">
        <route edges="8:2 2:0 0:1 1:3 3:7"/>
    </vehicle>
    <vehicle id="472" depart="472.00">
        <route edges="2:0 0:9 9:10"/>
    </vehicle>
    <vehicle id="473" depart="473.00">
        <route edges="8:2 2:0 0:1"/>
    </vehicle>
    <vehicle id="477" depart="477.00">
        <route edges="7:3 3:1 1:0 0:2 2:8"/>
    </vehicle>
    <vehicle id="478" depart="478.00">
        <route edges="8:2 2:0 0:9"/>
    </vehicle>
    <vehicle id="479" depart="479.00">
        <route edges="7:3 3:1 1:0 0:2 2:8"/>
    </vehicle>
    <vehicle id="480" depart="480.00">
        <route edges="7:3 3:1"/>
    </vehicle>
    <vehicle id="483" depart="483.00">
        <route edges="2:0 0:1 1:3 3:7"/>
    </vehicle>
    <vehicle id="485" depart="485.00">
        <route edges="7:3 3:1 1:0 0:2"/>
    </vehicle>
    <vehicle id="486" depart="486.00">
        <route edges="8:2 2:0 0:1 1:5 5:6"/>
    </vehicle>
    <vehicle id="487" depart="487.00">
        <route edges="8:2 2:0 0:1 1:3"/>
    </vehicle>
    <vehicle id="489" depart="489.00">
        <route edges="7:3 3:1 1:0 0:2 2:8"/>
    </vehicle>
    <vehicle id="496" depart="496.00">
        <route edges="0:2"/>
    </vehicle>
    <vehicle id="498" depart="498.00">
        <route edges="6:5 5:1 1:3"/>
    </vehicle>
    <vehicle id="501" depart="501.00">
        <route edges="7:3 3:1 1:5"/>
    </vehicle>
    <vehicle id="502" depart="502.00">
        <route edges="8:2 2:0 0:1 1:5 5:6"/>
    </vehicle>
    <vehicle id="505" depart="505.00">
        <route edges="5:1 1:3 3:7"/>
    </vehicle>
    <vehicle id="508" depart="508.00">
        <route edges="0:2 2:8"/>
    </vehicle>
    <vehicle id="511" depart="511.00">
        <route edges="8:2 2:0 0:1 1:3 3:7"/>
    </vehicle>
    <vehicle id="512" depart="512.00">
        <route edges="5:1 1:3 3:7"/>
    </vehicle>
    <vehicle id="513" depart="513.00">
        <route edges="2:0 0:1 1:3"/>
    </vehicle>
    <vehicle id="514" depart="514.00">
        <route edges="1:0 0:2"/>
    </vehicle>
    <vehicle id="516" depart="516.00">
        <route edges="10:9 9:0 0:1 1:3 3:7"/>
    </vehicle>
    <vehicle id="517" depart="517.00">
        <route edges="6:5 5:1"/>
    </vehicle>
    <vehicle id="519" depart="519.00">
        <route edges="8:2 2:0 0:9"/>
    </vehicle>
    <vehicle id="520" depart="520.00">
        <route edges="8:2 2:0 0:9"/>
    </vehicle>
    <vehicle id="524" depart="524.00">
        <route edges="8:2 2:0"/>
    </vehicle>
    <vehicle id="526" depart="526.00">
        <route edges="8:2 2:0 0:1"/>
    </vehicle>
    <vehicle id="527" depart="527.00">
        <route edges="2:0 0:1 1:3"/>
    </vehicle>
    <vehicle id="529" depart="529.00">
        <route edges="5:1"/>
    </vehicle>
    <vehicle id="535" depart="535.00">
        <route edges="8:2 2:0 0:1 1:3 3:7"/>
    </vehicle>
    <vehicle id="536" depart="536.00">
        <route edges="3:1 1:0"/>
    </vehicle>
    <vehicle id="539" depart="539.00">
        <route edges="9:0 0:1"/>
    </vehicle>
    <vehicle id="541" depart="541.00">
        <route edges="3:1 1:0 0:2 2:8"/>
    </vehicle>
    <vehicle id="542" depart="542.00">
        <route edges="2:0 0:1 1:5 5:6"/>
    </vehicle>
    <vehicle id="546" depart="546.00">
        <route edges="7:3 3:1 1:0 0:9 9:10"/>
    </vehicle>
    <vehicle id="547" depart="547.00">
        <route edges="8:2 2:0 0:9"/>
    </vehicle>
    <vehicle id="548" depart="548.00">
        <route edges="0:2 2:8"/>
    </vehicle>
    <vehicle id="550" depart="550.00">
        <route edges="3:1"/>
    </vehicle>
    <vehicle id="551" depart="551.00">
        <route edges="9:0 0:2 2:8"/>
    </vehicle>
    <vehicle id="552" depart="552.00">
        <route edges="10:9 9:0 0:2 2:8"/>
    </vehicle>
    <vehicle id="554" depart="554.00">
        <route edges="0:1 1:3"/>
    </vehicle>
    <vehicle id="560" depart="560.00">
        <route edges="6:5 5:1 1:0 0:9 9:10"/>
    </vehicle>
    <vehicle id="564" depart="564.00">
        <route edges="0:1 1:5"/>
    </vehicle>
    <vehicle id="565" depart="565.00">
        <route edges="6:5 5:1 1:0 0:9 9:10"/>
    </vehicle>
    <vehicle id="568" depart="568.00">
        <route edges="7:3 3:1 1:0 0:2 2:8"/>
    </vehicle>
    <vehicle id="569" depart="569.00">
        <route edges="2:0 0:1 1:3"/>
    </vehicle>
    <vehicle id="571" depart="571.00">
        <route edges="8:2 2:0 0:1 1:5 5:6"/>
    </vehicle>
    <vehicle id="574" depart="574.00">
        <route edges="7:3 3:1 1:0 0:2 2:8"/>
    </vehicle>
    <vehicle id="575" depart="575.00">
        <route edges="10:9 9:0 0:1 1:5 5:6"/>
    </vehicle>
    <vehicle id="577" depart="577.00">
        <route edges="3:1 1:0 0:2 2:8"/>
    </vehicle>
    <vehicle id="578" depart="578.00">
        <route edges="5:1 1:0 0:2 2:8"/>
    </vehicle>
    <vehicle id="579" depart="579.00">
        <route edges="7:3 3:1 1:0 0:2 2:8"/>
    </vehicle>
    <vehicle id="584" depart="584.00">
        <route edges="8:2 2:0 0:1"/>
    </vehicle>
    <vehicle id="585" depart="585.00">
        <route edges="10:9 9:0 0:1 1:3 3:7"/>
    </vehicle>
    <vehicle id="586" depart="586.00">
        <route edges="8:2 2:0 0:9 9:10"/>
    </vehicle>
    <vehicle id="588" depart="588.00">
        <route edges="3:1"/>
    </vehicle>
    <vehicle id="590" depart="590.00">
        <route edges="1:3"/>
    </vehicle>
    <vehicle id="592" depart="592.00">
        <route edges="9:0 0:2"/>
    </vehicle>
    <vehicle id="593" depart="593.00">
        <route edges="1:5 5:6"/>
    </vehicle>
    <vehicle id="594" depart="594.00">
        <route edges="9:0 0:1 1:5"/>
    </vehicle>
    <vehicle id="596" depart="596.00">
        <route edges="10:9 9:0 0:1 1:3 3:7"/>
    </vehicle>
    <vehicle id="600" depart="600.00">
        <route edges="3:1"/>
    </vehicle>
    <vehicle id="602" depart="602.00">
        <route edges="1:3 3:7"/>
    </vehicle>
    <vehicle id="603" depart="603.00">
        <route edges="7:3 3:1 1:5 5:6"/>
    </vehicle>
    <vehicle id="604" depart="604.00">
        <route edges="8:2 2:0 0:1 1:5"/>
    </vehicle>
    <vehicle id="605" depart="605.00">
        <route edges="10:9 9:0 0:2 2:8"/>
    </vehicle>
    <vehicle id="609" depart="609.00">
        <route edges="7:3 3:1"/>
    </vehicle>
    <vehicle id="610" depart="610.00">
        <route edges="0:9"/>
    </vehicle>
    <vehicle id="611" depart="611.00">
        <route edges="9:0 0:1 1:5 5:6"/>
    </vehicle>
    <vehicle id="616" depart="616.00">
        <route edges="0:2 2:8"/>
    </vehicle>
    <vehicle id="620" depart="620.00">
        <route edges="7:3 3:1"/>
    </vehicle>
    <vehicle id="623" depart="623.00">
        <route edges="2:0 0:9 9:10"/>
    </vehicle>
    <vehicle id="625" depart="625.00">
        <route edges="1:0"/>
    </vehicle>
    <vehicle id="627" depart="627.00">
        <route edges="10:9 9:0 0:1 1:5 5:6"/>
    </vehicle>
    <vehicle id="628" depart="628.00">