<?xml version="1.0" encoding="UTF-8"?>

<!-- generated on Thu Feb 13 14:15:53 2014 by SUMO duarouter Version 0.18.0
<?xml version="1.0" encoding="UTF-8"?>

<configuration xmlns:xsi="http://www.w3.org/2001/XMLSchema-instance" xsi:noNamespaceSchemaLocation="http://sumo.sf.net/xsd/duarouterConfiguration.xsd">

    <input>
        <net-file value="twinT.net.xml"/>
        <trip-files value="experimentos/twinT.p0.4.8.trips.xml"/>
    </input>

    <output>
        <output-file value="experimentos/twinT.p0.4.8.rou.xml"/>
    </output>

    <processing>
        <ignore-errors value="true"/>
    </processing>

    <random_number>
        <random value="true"/>
    </random_number>

</configuration>
-->

<routes xmlns:xsi="http://www.w3.org/2001/XMLSchema-instance" xsi:noNamespaceSchemaLocation="http://sumo.sf.net/xsd/routes_file.xsd">
    <vehicle id="4" depart="1.60">
        <route edges="10:9 9:0 0:1 1:5 5:6"/>
    </vehicle>
    <vehicle id="5" depart="2.00">
        <route edges="2:0"/>
    </vehicle>
    <vehicle id="7" depart="2.80">
        <route edges="8:2 2:0 0:1 1:3 3:7"/>
    </vehicle>
    <vehicle id="12" depart="4.80">
        <route edges="5:1 1:0 0:9 9:10"/>
    </vehicle>
    <vehicle id="18" depart="7.20">
        <route edges="2:0 0:1 1:3 3:7"/>
    </vehicle>
    <vehicle id="20" depart="8.00">
        <route edges="8:2 2:0"/>
    </vehicle>
    <vehicle id="22" depart="8.80">
        <route edges="8:2 2:0"/>
    </vehicle>
    <vehicle id="23" depart="9.20">
        <route edges="7:3 3:1 1:0"/>
    </vehicle>
    <vehicle id="24" depart="9.60">
        <route edges="1:0 0:9 9:10"/>
    </vehicle>
    <vehicle id="30" depart="12.00">
        <route edges="6:5 5:1 1:0 0:2 2:8"/>
    </vehicle>
    <vehicle id="33" depart="13.20">
        <route edges="8:2 2:0 0:1 1:3 3:7"/>
    </vehicle>
    <vehicle id="34" depart="13.60">
        <route edges="7:3 3:1 1:0"/>
    </vehicle>
    <vehicle id="37" depart="14.80">
        <route edges="8:2 2:0 0:1 1:3 3:7"/>
    </vehicle>
    <vehicle id="38" depart="15.20">
        <route edges="1:0 0:2 2:8"/>
    </vehicle>
    <vehicle id="41" depart="16.40">
        <route edges="5:1 1:0"/>
    </vehicle>
    <vehicle id="42" depart="16.80">
        <route edges="7:3 3:1 1:0 0:9 9:10"/>
    </vehicle>
    <vehicle id="44" depart="17.60">
        <route edges="8:2 2:0 0:9 9:10"/>
    </vehicle>
    <vehicle id="46" depart="18.40">
        <route edges="3:1 1:0 0:2"/>
    </vehicle>
    <vehicle id="50" depart="20.00">
        <route edges="3:1 1:0 0:2 2:8"/>
    </vehicle>
    <vehicle id="51" depart="20.40">
        <route edges="6:5 5:1 1:0 0:2 2:8"/>
    </vehicle>
    <vehicle id="52" depart="20.80">
        <route edges="8:2 2:0 0:1 1:3"/>
    </vehicle>
    <vehicle id="53" depart="21.20">
        <route edges="9:0 0:1 1:5 5:6"/>
    </vehicle>
    <vehicle id="57" depart="22.80">
        <route edges="6:5 5:1 1:0 0:9 9:10"/>
    </vehicle>
    <vehicle id="62" depart="24.80">
        <route edges="10:9 9:0 0:1 1:3 3:7"/>
    </vehicle>
    <vehicle id="64" depart="25.60">
        <route edges="5:1 1:3 3:7"/>
    </vehicle>
    <vehicle id="65" depart="26.00">
        <route edges="6:5 5:1 1:0"/>
    </vehicle>
    <vehicle id="66" depart="26.40">
        <route edges="3:1 1:0 0:2"/>
    </vehicle>
    <vehicle id="67" depart="26.80">
        <route edges="10:9 9:0 0:2 2:8"/>
    </vehicle>
    <vehicle id="69" depart="27.60">
        <route edges="3:1 1:0"/>
    </vehicle>
    <vehicle id="72" depart="28.80">
        <route edges="2:0 0:9"/>
    </vehicle>
    <vehicle id="75" depart="30.00">
        <route edges="8:2 2:0 0:1 1:3 3:7"/>
    </vehicle>
    <vehicle id="77" depart="30.80">
        <route edges="7:3 3:1 1:0 0:2 2:8"/>
    </vehicle>
    <vehicle id="79" depart="31.60">
        <route edges="0:1 1:5 5:6"/>
    </vehicle>
    <vehicle id="81" depart="32.40">
        <route edges="10:9 9:0 0:2 2:8"/>
    </vehicle>
    <vehicle id="82" depart="32.80">
        <route edges="7:3 3:1 1:0 0:9"/>
    </vehicle>
    <vehicle id="84" depart="33.60">
        <route edges="1:3 3:7"/>
    </vehicle>
    <vehicle id="86" depart="34.40">
        <route edges="5:1 1:0 0:2"/>
    </vehicle>
    <vehicle id="87" depart="34.80">
        <route edges="1:3"/>
    </vehicle>
    <vehicle id="88" depart="35.20">
        <route edges="2:0"/>
    </vehicle>
    <vehicle id="91" depart="36.40">
        <route edges="7:3 3:1 1:0 0:9 9:10"/>
    </vehicle>
    <vehicle id="94" depart="37.60">
        <route edges="7:3 3:1 1:0 0:9 9:10"/>
    </vehicle>
    <vehicle id="97" depart="38.80">
        <route edges="3:1 1:0 0:2 2:8"/>
    </vehicle>
    <vehicle id="98" depart="39.20">
        <route edges="2:0"/>
    </vehicle>
    <vehicle id="100" depart="40.00">
        <route edges="8:2 2:0 0:9"/>
    </vehicle>
    <vehicle id="104" depart="41.60">
        <route edges="3:1 1:5"/>
    </vehicle>
    <vehicle id="105" depart="42.00">
        <route edges="7:3 3:1 1:0 0:2"/>
    </vehicle>
    <vehicle id="111" depart="44.40">
        <route edges="7:3 3:1 1:5"/>
    </vehicle>
    <vehicle id="112" depart="44.80">
        <route edges="7:3 3:1 1:5"/>
    </vehicle>
    <vehicle id="113" depart="45.20">
        <route edges="8:2 2:0"/>
    </vehicle>
    <vehicle id="114" depart="45.60">
        <route edges="6:5 5:1 1:0 0:9 9:10"/>
    </vehicle>
    <vehicle id="115" depart="46.00">
        <route edges="7:3 3:1 1:5 5:6"/>
    </vehicle>
    <vehicle id="119" depart="47.60">
        <route edges="5:1 1:0 0:9"/>
    </vehicle>
    <vehicle id="120" depart="48.00">
        <route edges="8:2 2:0 0:1 1:3 3:7"/>
    </vehicle>
    <vehicle id="121" depart="48.40">
        <route edges="7:3 3:1"/>
    </vehicle>
    <vehicle id="123" depart="49.20">
        <route edges="8:2 2:0"/>
    </vehicle>
    <vehicle id="124" depart="49.60">
        <route edges="1:0 0:9"/>
    </vehicle>
    <vehicle id="126" depart="50.40">
        <route edges="5:1 1:0"/>
    </vehicle>
    <vehicle id="128" depart="51.20">
        <route edges="3:1"/>
    </vehicle>
    <vehicle id="135" depart="54.00">
        <route edges="1:0 0:2 2:8"/>
    </vehicle>
    <vehicle id="137" depart="54.80">
        <route edges="9:0 0:2 2:8"/>
    </vehicle>
    <vehicle id="139" depart="55.60">
        <route edges="8:2 2:0 0:1 1:3 3:7"/>
    </vehicle>
    <vehicle id="145" depart="58.00">
        <route edges="10:9 9:0"/>
    </vehicle>
    <vehicle id="147" depart="58.80">
        <route edges="1:0 0:2"/>
    </vehicle>
    <vehicle id="148" depart="59.20">
        <route edges="6:5 5:1 1:0 0:2 2:8"/>
    </vehicle>
    <vehicle id="149" depart="59.60">
        <route edges="7:3 3:1 1:0 0:2 2:8"/>
    </vehicle>
    <vehicle id="150" depart="60.00">
        <route edges="5:1 1:3"/>
    </vehicle>
    <vehicle id="158" depart="63.20">
        <route edges="7:3 3:1 1:0 0:2"/>
    </vehicle>
    <vehicle id="160" depart="64.00">
        <route edges="7:3 3:1 1:0 0:2 2:8"/>
    </vehicle>
    <vehicle id="163" depart="65.20">
        <route edges="7:3 3:1 1:0 0:9 9:10"/>
    </vehicle>
    <vehicle id="164" depart="65.60">
        <route edges="7:3 3:1 1:0 0:9 9:10"/>
    </vehicle>
    <vehicle id="165" depart="66.00">
        <route edges="6:5 5:1 1:0 0:9 9:10"/>
    </vehicle>
    <vehicle id="166" depart="66.40">
        <route edges="1:3"/>
    </vehicle>
    <vehicle id="167" depart="66.80">
        <route edges="9:0 0:2 2:8"/>
    </vehicle>
    <vehicle id="169" depart="67.60">
        <route edges="5:1"/>
    </vehicle>
    <vehicle id="170" depart="68.00">
        <route edges="0:2"/>
    </vehicle>
    <vehicle id="171" depart="68.40">
        <route edges="8:2 2:0"/>
    </vehicle>
    <vehicle id="172" depart="68.80">
        <route edges="7:3 3:1 1:0"/>
    </vehicle>
    <vehicle id="176" depart="70.40">
        <route edges="7:3 3:1 1:0 0:2 2:8"/>
    </vehicle>
    <vehicle id="178" depart="71.20">
        <route edges="7:3 3:1 1:0 0:2 2:8"/>
    </vehicle>
    <vehicle id="179" depart="71.60">
        <route edges="8:2 2:0 0:1 1:5"/>
    </vehicle>
    <vehicle id="181" depart="72.40">
        <route edges="3:1 1:0 0:2 2:8"/>
    </vehicle>
    <vehicle id="183" depart="73.20">
        <route edges="5:1 1:3 3:7"/>
    </vehicle>
    <vehicle id="184" depart="73.60">
        <route edges="6:5 5:1 1:3 3:7"/>
    </vehicle>
    <vehicle id="185" depart="74.00">
        <route edges="7:3 3:1 1:0"/>
    </vehicle>
    <vehicle id="186" depart="74.40">
        <route edges="8:2 2:0 0:9"/>
    </vehicle>
    <vehicle id="193" depart="77.20">
        <route edges="1:0 0:2 2:8"/>
    </vehicle>
    <vehicle id="197" depart="78.80">
        <route edges="1:3 3:7"/>
    </vehicle>
    <vehicle id="200" depart="80.00">
        <route edges="8:2 2:0"/>
    </vehicle>
    <vehicle id="201" depart="80.40">
        <route edges="2:0 0:1 1:3"/>
    </vehicle>
    <vehicle id="208" depart="83.20">
        <route edges="7:3 3:1 1:5 5:6"/>
    </vehicle>
    <vehicle id="210" depart="84.00">
        <route edges="0:1 1:5"/>
    </vehicle>
    <vehicle id="212" depart="84.80">
        <route edges="8:2 2:0 0:1 1:5"/>
    </vehicle>
    <vehicle id="213" depart="85.20">
        <route edges="0:2"/>
    </vehicle>
    <vehicle id="215" depart="86.00">
        <route edges="1:0 0:2 2:8"/>
    </vehicle>
    <vehicle id="216" depart="86.40">
        <route edges="8:2 2:0 0:1 1:3 3:7"/>
    </vehicle>
    <vehicle id="221" depart="88.40">
        <route edges="7:3 3:1"/>
    </vehicle>
    <vehicle id="225" depart="90.00">
        <route edges="9:0 0:2"/>
    </vehicle>
    <vehicle id="227" depart="90.80">
        <route edges="0:1 1:3"/>
    </vehicle>
    <vehicle id="230" depart="92.00">
        <route edges="1:3 3:7"/>
    </vehicle>
    <vehicle id="231" depart="92.40">
        <route edges="6:5 5:1 1:0 0:2 2:8"/>
    </vehicle>
    <vehicle id="233" depart="93.20">
        <route edges="0:1 1:5 5:6"/>
    </vehicle>
    <vehicle id="234" depart="93.60">
        <route edges="10:9 9:0 0:1 1:3"/>
    </vehicle>
    <vehicle id="236" depart="94.40">
        <route edges="1:3"/>
    </vehicle>
    <vehicle id="239" depart="95.60">
        <route edges="10:9 9:0 0:1 1:3"/>
    </vehicle>
    <vehicle id="240" depart="96.00">
        <route edges="10:9 9:0 0:1 1:3"/>
    </vehicle>
    <vehicle id="242" depart="96.80">
        <route edges="2:0 0:1 1:3 3:7"/>
    </vehicle>
    <vehicle id="243" depart="97.20">
        <route edges="10:9 9:0 0:1 1:5"/>
    </vehicle>
    <vehicle id="245" depart="98.00">
        <route edges="2:0 0:1 1:5 5:6"/>
    </vehicle>
    <vehicle id="246" depart="98.40">
        <route edges="7:3 3:1 1:0 0:2"/>
    </vehicle>
    <vehicle id="248" depart="99.20">
        <route edges="6:5 5:1 1:3"/>
    </vehicle>
    <vehicle id="250" depart="100.00">
        <route edges="1:3 3:7"/>
    </vehicle>
    <vehicle id="254" depart="101.60">
        <route edges="7:3 3:1 1:5 5:6"/>
    </vehicle>
    <vehicle id="257" depart="102.80">
        <route edges="5:1 1:0 0:9 9:10"/>
    </vehicle>
    <vehicle id="258" depart="103.20">
        <route edges="1:0 0:9"/>
    </vehicle>
    <vehicle id="259" depart="103.60">
        <route edges="3:1 1:0 0:2 2:8"/>
    </vehicle>
    <vehicle id="260" depart="104.00">
        <route edges="5:1 1:0"/>
    </vehicle>
    <vehicle id="262" depart="104.80">
        <route edges="7:3 3:1 1:0 0:9 9:10"/>
    </vehicle>
    <vehicle id="263" depart="105.20">
        <route edges="7:3 3:1 1:5 5:6"/>
    </vehicle>
    <vehicle id="264" depart="105.60">
        <route edges="1:3 3:7"/>
    </vehicle>
    <vehicle id="265" depart="106.00">
        <route edges="7:3 3:1 1:0 0:2"/>
    </vehicle>
    <vehicle id="268" depart="107.20">
        <route edges="8:2 2:0 0:9"/>
    </vehicle>
    <vehicle id="270" depart="108.00">
        <route edges="3:1 1:0 0:2 2:8"/>
    </vehicle>
    <vehicle id="271" depart="108.40">
        <route edges="7:3 3:1 1:0 0:2"/>
    </vehicle>
    <vehicle id="274" depart="109.60">
        <route edges="9:0 0:2 2:8"/>
    </vehicle>
    <vehicle id="285" depart="114.00">
        <route edges="3:1 1:0 0:2 2:8"/>
    </vehicle>
    <vehicle id="289" depart="115.60">
        <route edges="1:0 0:2"/>
    </vehicle>
    <vehicle id="290" depart="116.00">
        <route edges="8:2 2:0 0:1 1:3 3:7"/>
    </vehicle>
    <vehicle id="292" depart="116.80">
        <route edges="0:2 2:8"/>
    </vehicle>
    <vehicle id="294" depart="117.60">
        <route edges="7:3 3:1"/>
    </vehicle>
    <vehicle id="297" depart="118.80">
        <route edges="1:3 3:7"/>
    </vehicle>
    <vehicle id="300" depart="120.00">
        <route edges="7:3 3:1 1:5 5:6"/>
    </vehicle>
    <vehicle id="302" depart="120.80">
        <route edges="8:2 2:0 0:1 1:3 3:7"/>
    </vehicle>
    <vehicle id="305" depart="122.00">
        <route edges="7:3 3:1 1:5 5:6"/>
    </vehicle>
    <vehicle id="307" depart="122.80">
        <route edges="8:2 2:0"/>
    </vehicle>
    <vehicle id="308" depart="123.20">
        <route edges="1:0 0:9 9:10"/>
    </vehicle>
    <vehicle id="310" depart="124.00">
        <route edges="7:3 3:1"/>
    </vehicle>
    <vehicle id="312" depart="124.80">
        <route edges="2:0"/>
    </vehicle>
    <vehicle id="314" depart="125.60">
        <route edges="3:1"/>
    </vehicle>
    <vehicle id="323" depart="129.20">
        <route edges="6:5 5:1 1:3 3:7"/>
    </vehicle>
    <vehicle id="324" depart="129.60">
        <route edges="7:3 3:1 1:0 0:2 2:8"/>
    </vehicle>
    <vehicle id="325" depart="130.00">
        <route edges="0:1"/>
    </vehicle>
    <vehicle id="327" depart="130.80">
        <route edges="8:2 2:0 0:1 1:5 5:6"/>
    </vehicle>
    <vehicle id="330" depart="132.00">
        <route edges="10:9 9:0 0:1 1:3 3:7"/>
    </vehicle>
    <vehicle id="331" depart="132.40">
        <route edges="5:1 1:0 0:9"/>
    </vehicle>
    <vehicle id="332" depart="132.80">
        <route edges="9:0 0:2"/>
    </vehicle>
    <vehicle id="333" depart="133.20">
        <route edges="6:5 5:1 1:0 0:2 2:8"/>
    </vehicle>
    <vehicle id="337" depart="134.80">
        <route edges="7:3 3:1 1:0 0:9 9:10"/>
    </vehicle>
    <vehicle id="340" depart="136.00">
        <route edges="7:3 3:1 1:0 0:2 2:8"/>
    </vehicle>
    <vehicle id="343" depart="137.20">
        <route edges="2:0 0:1 1:3"/>
    </vehicle>
    <vehicle id="344" depart="137.60">
        <route edges="3:1 1:0 0:2 2:8"/>
    </vehicle>
    <vehicle id="345" depart="138.00">
        <route edges="8:2 2:0 0:1 1:3"/>
    </vehicle>
    <vehicle id="347" depart="138.80">
        <route edges="7:3 3:1 1:0"/>
    </vehicle>
    <vehicle id="348" depart="139.20">
        <route edges="2:0 0:9"/>
    </vehicle>
    <vehicle id="350" depart="140.00">
        <route edges="8:2 2:0"/>
    </vehicle>
    <vehicle id="351" depart="140.40">
        <route edges="7:3 3:1 1:0 0:9 9:10"/>
    </vehicle>
    <vehicle id="352" depart="140.80">
        <route edges="8:2 2:0 0:1"/>
    </vehicle>
    <vehicle id="354" depart="141.60">
        <route edges="7:3 3:1 1:0 0:9 9:10"/>
    </vehicle>
    <vehicle id="355" depart="142.00">
        <route edges="2:0 0:1 1:5 5:6"/>
    </vehicle>
    <vehicle id="357" depart="142.80">
        <route edges="10:9 9:0 0:1 1:3"/>
    </vehicle>
    <vehicle id="358" depart="143.20">
        <route edges="6:5 5:1 1:3 3:7"/>
    </vehicle>
    <vehicle id="361" depart="144.40">
        <route edges="3:1 1:5 5:6"/>
    </vehicle>
    <vehicle id="362" depart="144.80">
        <route edges="10:9 9:0 0:2"/>
    </vehicle>
    <vehicle id="364" depart="145.60">
        <route edges="8:2 2:0 0:1 1:3 3:7"/>
    </vehicle>
    <vehicle id="366" depart="146.40">
        <route edges="2:0"/>
    </vehicle>
    <vehicle id="374" depart="149.60">
        <route edges="8:2 2:0 0:1 1:3 3:7"/>
    </vehicle>
    <vehicle id="376" depart="150.40">
        <route edges="8:2 2:0 0:9 9:10"/>
    </vehicle>
    <vehicle id="377" depart="150.80">
        <route edges="7:3 3:1 1:0"/>
    </vehicle>
    <vehicle id="379" depart="151.60">
        <route edges="1:3 3:7"/>
    </vehicle>
    <vehicle id="380" depart="152.00">
        <route edges="0:2 2:8"/>
    </vehicle>
    <vehicle id="381" depart="152.40">
        <route edges="8:2 2:0 0:1 1:5"/>
    </vehicle>
    <vehicle id="382" depart="152.80">
        <route edges="3:1 1:0 0:2 2:8"/>
    </vehicle>
    <vehicle id="383" depart="153.20">
        <route edges="7:3 3:1 1:0 0:2 2:8"/>
    </vehicle>
    <vehicle id="387" depart="154.80">
        <route edges="1:3"/>
    </vehicle>
    <vehicle id="388" depart="155.20">
        <route edges="8:2 2:0 0:9 9:10"/>
    </vehicle>
    <vehicle id="389" depart="155.60">
        <route edges="3:1 1:0 0:2"/>
    </vehicle>
    <vehicle id="390" depart="156.00">
        <route edges="1:3"/>
    </vehicle>
    <vehicle id="392" depart="156.80">
        <route edges="0:2"/>
    </vehicle>
    <vehicle id="394" depart="157.60">
        <route edges="2:0 0:1 1:3"/>
    </vehicle>
    <vehicle id="395" depart="158.00">
        <route edges="7:3 3:1 1:0 0:2 2:8"/>
    </vehicle>
    <vehicle id="396" depart="158.40">
        <route edges="8:2 2:0 0:1 1:3 3:7"/>
    </vehicle>
    <vehicle id="397" depart="158.80">
        <route edges="9:0 0:1 1:3 3:7"/>
    </vehicle>
    <vehicle id="399" depart="159.60">
        <route edges="5:1 1:3 3:7"/>
    </vehicle>
    <vehicle id="400" depart="160.00">
        <route edges="7:3 3:1 1:0 0:2"/>
    </vehicle>
    <vehicle id="402" depart="160.80">
        <route edges="8:2 2:0 0:1 1:3 3:7"/>
    </vehicle>
    <vehicle id="405" depart="162.00">
        <route edges="5:1 1:3 3:7"/>
    </vehicle>
    <vehicle id="406" depart="162.40">
        <route edges="2:0 0:1 1:3"/>
    </vehicle>
    <vehicle id="407" depart="162.80">
        <route edges="6:5 5:1 1:0 0:2 2:8"/>
    </vehicle>
    <vehicle id="408" depart="163.20">
        <route edges="7:3 3:1 1:0 0:9"/>
    </vehicle>
    <vehicle id="409" depart="163.60">
        <route edges="10:9 9:0 0:1"/>
    </vehicle>
    <vehicle id="412" depart="164.80">
        <route edges="7:3 3:1 1:0 0:9 9:10"/>
    </vehicle>
    <vehicle id="414" depart="165.60">
        <route edges="7:3 3:1"/>
    </vehicle>
    <vehicle id="415" depart="166.00">
        <route edges="9:0 0:1 1:5 5:6"/>
    </vehicle>
    <vehicle id="416" depart="166.40">
        <route edges="8:2 2:0 0:1 1:5 5:6"/>
    </vehicle>
    <vehicle id="417" depart="166.80">
        <route edges="1:3"/>
    </vehicle>
    <vehicle id="427" depart="170.80">
        <route edges="8:2 2:0"/>
    </vehicle>
    <vehicle id="428" depart="171.20">
        <route edges="5:1 1:3 3:7"/>
    </vehicle>
    <vehicle id="429" depart="171.60">
        <route edges="6:5 5:1"/>
    </vehicle>
    <vehicle id="430" depart="172.00">
        <route edges="3:1 1:0 0:2"/>
    </vehicle>
    <vehicle id="431" depart="172.40">
        <route edges="0:1"/>
    </vehicle>
    <vehicle id="432" depart="172.80">
        <route edges="6:5 5:1 1:3 3:7"/>
    </vehicle>
    <vehicle id="433" depart="173.20">
        <route edges="7:3 3:1"/>
    </vehicle>
    <vehicle id="434" depart="173.60">
        <route edges="8:2 2:0 0:1 1:5 5:6"/>
    </vehicle>
    <vehicle id="435" depart="174.00">
        <route edges="9:0 0:1 1:5"/>
    </vehicle>
    <vehicle id="438" depart="175.20">
        <route edges="8:2 2:0"/>
    </vehicle>
    <vehicle id="440" depart="176.00">
        <route edges="1:0 0:2"/>
    </vehicle>
    <vehicle id="441" depart="176.40">
        <route edges="8:2 2:0 0:9"/>
    </vehicle>
    <vehicle id="442" depart="176.80">
        <route edges="2:0 0:1 1:3"/>
    </vehicle>
    <vehicle id="444" depart="177.60">
        <route edges="0:2 2:8"/>
    </vehicle>
    <vehicle id="446" depart="178.40">
        <route edges="8:2 2:0 0:1 1:5"/>
    </vehicle>
    <vehicle id="449" depart="179.60">
        <route edges="9:0 0:1 1:5 5:6"/>
    </vehicle>
    <vehicle id="456" depart="182.40">
        <route edges="7:3 3:1 1:5"/>
    </vehicle>
    <vehicle id="458" depart="183.20">
        <route edges="6:5 5:1 1:0 0:2 2:8"/>
    </vehicle>
    <vehicle id="462" depart="184.80">
        <route edges="8:2 2:0 0:1 1:3"/>
    </vehicle>
    <vehicle id="464" depart="185.60">
        <route edges="8:2 2:0 0:1 1:3 3:7"/>
    </vehicle>
    <vehicle id="466" depart="186.40">
        <route edges="8:2 2:0 0:9 9:10"/>
    </vehicle>
    <vehicle id="467" depart="186.80">
        <route edges="6:5 5:1 1:0 0:9"/>
    </vehicle>
    <vehicle id="468" depart="187.20">
        <route edges="5:1 1:0 0:2 2:8"/>
    </vehicle>
    <vehicle id="471" depart="188.40">
        <route edges="5:1 1:0 0:9"/>
    </vehicle>
    <vehicle id="476" depart="190.40">
        <route edges="7:3 3:1 1:0 0:9"/>
    </vehicle>
    <vehicle id="478" depart="191.20">
        <route edges="9:0"/>
    </vehicle>
    <vehicle id="479" depart="191.60">
        <route edges="8:2 2:0 0:1 1:3 3:7"/>
    </vehicle>
    <vehicle id="480" depart="192.00">
        <route edges="6:5 5:1 1:0 0:9"/>
    </vehicle>
    <vehicle id="482" depart="192.80">
        <route edges="0:2 2:8"/>
    </vehicle>
    <vehicle id="484" depart="193.60">
        <route edges="6:5 5:1 1:0 0:2"/>
    </vehicle>
    <vehicle id="485" depart="194.00">
        <route edges="7:3 3:1 1:0 0:9 9:10"/>
    </vehicle>
    <vehicle id="486" depart="194.40">
        <route edges="3:1 1:0 0:2 2:8"/>
    </vehicle>
    <vehicle id="487" depart="194.80">
        <route edges="1:0 0:2 2:8"/>
    </vehicle>
    <vehicle id="489" depart="195.60">
        <route edges="1:0 0:2"/>
    </vehicle>
    <vehicle id="491" depart="196.40">
        <route edges="7:3 3:1"/>
    </vehicle>
    <vehicle id="495" depart="198.00">
        <route edges="3:1 1:0 0:2 2:8"/>
    </vehicle>
    <vehicle id="496" depart="198.40">
        <route edges="7:3 3:1 1:5 5:6"/>
    </vehicle>
    <vehicle id="500" depart="200.00">
        <route edges="1:3"/>
    </vehicle>
    <vehicle id="502" depart="200.80">
        <route edges="3:1 1:0 0:9 9:10"/>
    </vehicle>
    <vehicle id="508" depart="203.20">
        <route edges="9:0 0:2"/>
    </vehicle>
    <vehicle id="510" depart="204.00">
        <route edges="3:1 1:0 0:2 2:8"/>
    </vehicle>
    <vehicle id="511" depart="204.40">
        <route edges="2:0 0:1 1:3 3:7"/>
    </vehicle>
    <vehicle id="512" depart="204.80">
        <route edges="7:3 3:1 1:0 0:9"/>
    </vehicle>
    <vehicle id="516" depart="206.40">
        <route edges="6:5 5:1 1:0 0:2 2:8"/>
    </vehicle>
    <vehicle id="523" depart="209.20">
        <route edges="3:1 1:0 0:9 9:10"/>
    </vehicle>
    <vehicle id="524" depart="209.60">
        <route edges="7:3 3:1 1:0 0:2 2:8"/>
    </vehicle>
    <vehicle id="525" depart="210.00">
        <route edges="2:0 0:1 1:3 3:7"/>
    </vehicle>
    <vehicle id="529" depart="211.60">
        <route edges="7:3 3:1 1:0 0:9 9:10"/>
    </vehicle>
    <vehicle id="530" depart="212.00">
        <route edges="1:3 3:7"/>
    </vehicle>
    <vehicle id="532" depart="212.80">
        <route edges="8:2 2:0 0:1 1:3 3:7"/>
    </vehicle>
    <vehicle id="533" depart="213.20">
        <route edges="0:2 2:8"/>
    </vehicle>
    <vehicle id="535" depart="214.00">
        <route edges="10:9 9:0 0:2 2:8"/>
    </vehicle>
    <vehicle id="537" depart="214.80">
        <route edges="7:3 3:1 1:0 0:9 9:10"/>
    </vehicle>
    <vehicle id="538" depart="215.20">
        <route edges="8:2 2:0 0:1 1:3 3:7"/>
    </vehicle>
    <vehicle id="540" depart="216.00">
        <route edges="7:3 3:1 1:0 0:2"/>
    </vehicle>
    <vehicle id="543" depart="217.20">
        <route edges="2:0 0:1 1:3 3:7"/>
    </vehicle>
    <vehicle id="544" depart="217.60">
        <route edges="3:1 1:0"/>
    </vehicle>
    <vehicle id="545" depart="218.00">
        <route edges="7:3 3:1 1:0 0:2 2:8"/>
    </vehicle>
    <vehicle id="549" depart="219.60">
        <route edges="7:3 3:1 1:0"/>
    </vehicle>
    <vehicle id="551" depart="220.40">
        <route edges="9:0 0:1 1:3 3:7"/>
    </vehicle>
    <vehicle id="552" depart="220.80">
        <route edges="8:2 2:0 0:1"/>
    </vehicle>
    <vehicle id="555" depart="222.00">
        <route edges="3:1 1:0 0:2 2:8"/>
    </vehicle>
    <vehicle id="556" depart="222.40">
        <route edges="8:2 2:0"/>
    </vehicle>
    <vehicle id="557" depart="222.80">
        <route edges="1:3"/>
    </vehicle>
    <vehicle id="558" depart="223.20">
        <route edges="9:0 0:1 1:3"/>
    </vehicle>
    <vehicle id="559" depart="223.60">
        <route edges="8:2 2:0 0:1 1:5 5:6"/>
    </vehicle>
    <vehicle id="562" depart="224.80">
        <route edges="8:2 2:0 0:9 9:10"/>
    </vehicle>
    <vehicle id="564" depart="225.60">
        <route edges="2:0 0:1 1:5 5:6"/>
    </vehicle>
    <vehicle id="570" depart="228.00">
        <route edges="7:3 3:1 1:5"/>
    </vehicle>
    <vehicle id="571" depart="228.40">
        <route edges="2:0"/>
    </vehicle>
    <vehicle id="573" depart="229.20">
        <route edges="7:3 3:1 1:0 0:2"/>
    </vehicle>
    <vehicle id="574" depart="229.60">
        <route edges="7:3 3:1 1:0 0:2 2:8"/>
    </vehicle>
    <vehicle id="577" depart="230.80">
        <route edges="8:2 2:0 0:1 1:3 3:7"/>
    </vehicle>
    <vehicle id="578" depart="231.20">
        <route edges="7:3 3:1 1:0 0:9 9:10"/>
    </vehicle>
    <vehicle id="580" depart="232.00">
        <route edges="7:3 3:1"/>
    </vehicle>
    <vehicle id="582" depart="232.80">
        <route edges="2:0 0:1 1:3 3:7"/>
    </vehicle>
    <vehicle id="583" depart="233.20">
        <route edges="7:3 3:1"/>
    </vehicle>
    <vehicle id="584" depart="233.60">
        <route edges="10:9 9:0 0:2 2:8"/>
    </vehicle>
    <vehicle id="586" depart="234.40">
        <route edges="7:3 3:1"/>
    </vehicle>
    <vehicle id="587" depart="234.80">
        <route edges="10:9 9:0 0:2 2:8"/>
    </vehicle>
    <vehicle id="588" depart="235.20">
        <route edges="7:3 3:1 1:0 0:2"/>
    </vehicle>
    <vehicle id="589" depart="235.60">
        <route edges="8:2 2:0 0:1 1:3"/>
    </vehicle>
    <vehicle id="590" depart="236.00">
        <route edges="5:1 1:0 0:2"/>
    </vehicle>
    <vehicle id="593" depart="237.20">
        <route edges="7:3 3:1 1:0 0:2 2:8"/>
    </vehicle>
    <vehicle id="594" depart="237.60">
        <route edges="1:3 3:7"/>
    </vehicle>
    <vehicle id="597" depart="238.80">
        <route edges="8:2 2:0 0:1"/>
    </vehicle>
    <vehicle id="601" depart="240.40">
        <route edges="2:0 0:1 1:5 5:6"/>
    </vehicle>
    <vehicle id="603" depart="241.20">
        <route edges="2:0"/>
    </vehicle>
    <vehicle id="604" depart="241.60">
        <route edges="10:9 9:0 0:1 1:3 3:7"/>
    </vehicle>
    <vehicle id="605" depart="242.00">
        <route edges="7:3 3:1"/>
    </vehicle>
    <vehicle id="606" depart="242.40">
        <route edges="5:1 1:0"/>
    </vehicle>
    <vehicle id="608" depart="243.20">
        <route edges="8:2 2:0 0:1 1:5"/>
    </vehicle>
    <vehicle id="609" depart="243.60">
        <route edges="6:5 5:1 1:0"/>
    </vehicle>
    <vehicle id="613" depart="245.20">
        <route edges="5:1 1:0 0:2"/>
    </vehicle>
    <vehicle id="614" depart="245.60">
        <route edges="9:0 0:1 1:5"/>
    </vehicle>
    <vehicle id="615" depart="246.00">
        <route edges="7:3 3:1 1:5 5:6"/>
    </vehicle>
    <vehicle id="617" depart="246.80">
        <route edges="0:2 2:8"/>
    </vehicle>
    <vehicle id="618" depart="247.20">
        <route edges="9:0 0:1 1:3"/>
    </vehicle>
    <vehicle id="622" depart="248.80">
        <route edges="2:0 0:1 1:5 5:6"/>
    </vehicle>
    <vehicle id="624" depart="249.60">
        <route edges="3:1 1:0 0:2"/>
    </vehicle>
    <vehicle id="625" depart="250.00">
        <route edges="0:2"/>
    </vehicle>
    <vehicle id="628" depart="251.20">
        <route edges="8:2 2:0 0:1 1:3 3:7"/>
    </vehicle>
    <vehicle id="631" depart="252.40">
        <route edges="9:0 0:1 1:3 3:7"/>
    </vehicle>
    <vehicle id="632" depart="252.80">
        <route edges="7:3 3:1 1:0 0:9 9:10"/>
    </vehicle>
    <vehicle id="637" depart="254.80">
        <route edges="1:3"/>
    </vehicle>
    <vehicle id="638" depart="255.20">
        <route edges="1:3 3:7"/>
    </vehicle>
    <vehicle id="639" depart="255.60">
        <route edges="3:1 1:0 0:2"/>
    </vehicle>
    <vehicle id="641" depart="256.40">
        <route edges="7:3 3:1 1:0 0:2 2:8"/>
    </vehicle>
    <vehicle id="643" depart="257.20">
        <route edges="8:2 2:0 0:1"/>
    </vehicle>
    <vehicle id="645" depart="258.00">
        <route edges="6:5 5:1 1:0 0:2 2:8"/>
    </vehicle>
    <vehicle id="647" depart="258.80">
        <route edges="7:3 3:1 1:0 0:2"/>
    </vehicle>
    <vehicle id="648" depart="259.20">
        <route edges="3:1 1:0"/>
    </vehicle>
    <vehicle id="649" depart="259.60">
        <route edges="5:1 1:0 0:2"/>
    </vehicle>
    <vehicle id="651" depart="260.40">
        <route edges="2:0 0:9 9:10"/>
    </vehicle>
    <vehicle id="654" depart="261.60">
        <route edges="2:0"/>
    </vehicle>
    <vehicle id="656" depart="262.40">
        <route edges="0:2 2:8"/>
    </vehicle>
    <vehicle id="660" depart="264.00">
        <route edges="3:1 1:5"/>
    </vehicle>
    <vehicle id="664" depart="265.60">
        <route edges="7:3 3:1 1:0 0:2 2:8"/>
    </vehicle>
    <vehicle id="669" depart="267.60">
        <route edges="7:3 3:1 1:0 0:2 2:8"/>
    </vehicle>
    <vehicle id="670" depart="268.00">
        <route edges="7:3 3:1 1:5"/>
    </vehicle>
    <vehicle id="671" depart="268.40">
        <route edges="1:3 3:7"/>
    </vehicle>
    <vehicle id="672" depart="268.80">
        <route edges="7:3 3:1 1:0 0:2 2:8"/>
    </vehicle>
    <vehicle id="674" depart="269.60">