<?xml version="1.0" encoding="UTF-8"?>

<!-- generated on Thu Feb 13 14:15:50 2014 by SUMO duarouter Version 0.18.0
<?xml version="1.0" encoding="UTF-8"?>

<configuration xmlns:xsi="http://www.w3.org/2001/XMLSchema-instance" xsi:noNamespaceSchemaLocation="http://sumo.sf.net/xsd/duarouterConfiguration.xsd">

    <input>
        <net-file value="twinT.net.xml"/>
        <trip-files value="experimentos/twinT.p0.4.7.trips.xml"/>
    </input>

    <output>
        <output-file value="experimentos/twinT.p0.4.7.rou.xml"/>
    </output>

    <processing>
        <ignore-errors value="true"/>
    </processing>

    <random_number>
        <random value="true"/>
    </random_number>

</configuration>
-->

<routes xmlns:xsi="http://www.w3.org/2001/XMLSchema-instance" xsi:noNamespaceSchemaLocation="http://sumo.sf.net/xsd/routes_file.xsd">
    <vehicle id="0" depart="0.00">
        <route edges="8:2 2:0 0:1 1:3"/>
    </vehicle>
    <vehicle id="1" depart="0.40">
        <route edges="6:5 5:1 1:0 0:2 2:8"/>
    </vehicle>
    <vehicle id="2" depart="0.80">
        <route edges="6:5 5:1 1:0 0:9"/>
    </vehicle>
    <vehicle id="3" depart="1.20">
        <route edges="6:5 5:1 1:3 3:7"/>
    </vehicle>
    <vehicle id="6" depart="2.40">
        <route edges="1:3"/>
    </vehicle>
    <vehicle id="12" depart="4.80">
        <route edges="3:1 1:0 0:2"/>
    </vehicle>
    <vehicle id="16" depart="6.40">
        <route edges="2:0 0:1 1:3 3:7"/>
    </vehicle>
    <vehicle id="17" depart="6.80">
        <route edges="7:3 3:1 1:0 0:2 2:8"/>
    </vehicle>
    <vehicle id="21" depart="8.40">
        <route edges="0:9"/>
    </vehicle>
    <vehicle id="22" depart="8.80">
        <route edges="8:2 2:0 0:9 9:10"/>
    </vehicle>
    <vehicle id="23" depart="9.20">
        <route edges="6:5 5:1 1:0 0:9"/>
    </vehicle>
    <vehicle id="26" depart="10.40">
        <route edges="8:2 2:0 0:1 1:5 5:6"/>
    </vehicle>
    <vehicle id="27" depart="10.80">
        <route edges="3:1 1:0 0:2 2:8"/>
    </vehicle>
    <vehicle id="29" depart="11.60">
        <route edges="1:3 3:7"/>
    </vehicle>
    <vehicle id="31" depart="12.40">
        <route edges="2:0"/>
    </vehicle>
    <vehicle id="32" depart="12.80">
        <route edges="0:1"/>
    </vehicle>
    <vehicle id="34" depart="13.60">
        <route edges="8:2 2:0 0:9 9:10"/>
    </vehicle>
    <vehicle id="37" depart="14.80">
        <route edges="6:5 5:1 1:0 0:2 2:8"/>
    </vehicle>
    <vehicle id="40" depart="16.00">
        <route edges="2:0 0:1 1:3 3:7"/>
    </vehicle>
    <vehicle id="42" depart="16.80">
        <route edges="2:0 0:9 9:10"/>
    </vehicle>
    <vehicle id="45" depart="18.00">
        <route edges="7:3 3:1 1:0 0:2 2:8"/>
    </vehicle>
    <vehicle id="46" depart="18.40">
        <route edges="7:3 3:1 1:0 0:2 2:8"/>
    </vehicle>
    <vehicle id="47" depart="18.80">
        <route edges="6:5 5:1 1:0 0:2"/>
    </vehicle>
    <vehicle id="50" depart="20.00">
        <route edges="0:2 2:8"/>
    </vehicle>
    <vehicle id="55" depart="22.00">
        <route edges="10:9 9:0 0:2"/>
    </vehicle>
    <vehicle id="59" depart="23.60">
        <route edges="7:3 3:1 1:0 0:2"/>
    </vehicle>
    <vehicle id="60" depart="24.00">
        <route edges="0:9 9:10"/>
    </vehicle>
    <vehicle id="63" depart="25.20">
        <route edges="6:5 5:1"/>
    </vehicle>
    <vehicle id="64" depart="25.60">
        <route edges="2:0 0:1 1:3"/>
    </vehicle>
    <vehicle id="65" depart="26.00">
        <route edges="8:2 2:0 0:9 9:10"/>
    </vehicle>
    <vehicle id="68" depart="27.20">
        <route edges="3:1 1:0 0:2 2:8"/>
    </vehicle>
    <vehicle id="70" depart="28.00">
        <route edges="10:9 9:0 0:1 1:3 3:7"/>
    </vehicle>
    <vehicle id="73" depart="29.20">
        <route edges="7:3 3:1 1:0 0:9"/>
    </vehicle>
    <vehicle id="74" depart="29.60">
        <route edges="10:9 9:0 0:1 1:3 3:7"/>
    </vehicle>
    <vehicle id="76" depart="30.40">
        <route edges="7:3 3:1 1:0 0:2 2:8"/>
    </vehicle>
    <vehicle id="81" depart="32.40">
        <route edges="10:9 9:0 0:2 2:8"/>
    </vehicle>
    <vehicle id="86" depart="34.40">
        <route edges="1:3"/>
    </vehicle>
    <vehicle id="88" depart="35.20">
        <route edges="10:9 9:0 0:1 1:3"/>
    </vehicle>
    <vehicle id="89" depart="35.60">
        <route edges="10:9 9:0 0:2 2:8"/>
    </vehicle>
    <vehicle id="91" depart="36.40">
        <route edges="7:3 3:1 1:5 5:6"/>
    </vehicle>
    <vehicle id="92" depart="36.80">
        <route edges="7:3 3:1 1:0 0:2"/>
    </vehicle>
    <vehicle id="93" depart="37.20">
        <route edges="6:5 5:1 1:0 0:2"/>
    </vehicle>
    <vehicle id="96" depart="38.40">
        <route edges="7:3 3:1"/>
    </vehicle>
    <vehicle id="99" depart="39.60">
        <route edges="2:0 0:9 9:10"/>
    </vehicle>
    <vehicle id="101" depart="40.40">
        <route edges="7:3 3:1"/>
    </vehicle>
    <vehicle id="103" depart="41.20">
        <route edges="8:2 2:0 0:9"/>
    </vehicle>
    <vehicle id="105" depart="42.00">
        <route edges="9:0 0:2"/>
    </vehicle>
    <vehicle id="110" depart="44.00">
        <route edges="5:1 1:3 3:7"/>
    </vehicle>
    <vehicle id="111" depart="44.40">
        <route edges="1:0 0:2 2:8"/>
    </vehicle>
    <vehicle id="115" depart="46.00">
        <route edges="1:3 3:7"/>
    </vehicle>
    <vehicle id="116" depart="46.40">
        <route edges="0:9 9:10"/>
    </vehicle>
    <vehicle id="119" depart="47.60">
        <route edges="8:2 2:0 0:9 9:10"/>
    </vehicle>
    <vehicle id="122" depart="48.80">
        <route edges="8:2 2:0 0:9"/>
    </vehicle>
    <vehicle id="123" depart="49.20">
        <route edges="3:1 1:0 0:2"/>
    </vehicle>
    <vehicle id="124" depart="49.60">
        <route edges="2:0 0:1 1:5 5:6"/>
    </vehicle>
    <vehicle id="127" depart="50.80">
        <route edges="7:3 3:1 1:0 0:9 9:10"/>
    </vehicle>
    <vehicle id="131" depart="52.40">
        <route edges="7:3 3:1 1:0 0:2 2:8"/>
    </vehicle>
    <vehicle id="134" depart="53.60">
        <route edges="1:3"/>
    </vehicle>
    <vehicle id="135" depart="54.00">
        <route edges="1:0 0:9"/>
    </vehicle>
    <vehicle id="136" depart="54.40">
        <route edges="0:9 9:10"/>
    </vehicle>
    <vehicle id="137" depart="54.80">
        <route edges="6:5 5:1 1:0 0:9 9:10"/>
    </vehicle>
    <vehicle id="138" depart="55.20">
        <route edges="0:2"/>
    </vehicle>
    <vehicle id="144" depart="57.60">
        <route edges="10:9 9:0 0:1 1:5 5:6"/>
    </vehicle>
    <vehicle id="145" depart="58.00">
        <route edges="1:0 0:2 2:8"/>
    </vehicle>
    <vehicle id="147" depart="58.80">
        <route edges="0:1 1:3 3:7"/>
    </vehicle>
    <vehicle id="151" depart="60.40">
        <route edges="6:5 5:1 1:0 0:2 2:8"/>
    </vehicle>
    <vehicle id="153" depart="61.20">
        <route edges="0:9"/>
    </vehicle>
    <vehicle id="154" depart="61.60">
        <route edges="7:3 3:1 1:0 0:2 2:8"/>
    </vehicle>
    <vehicle id="156" depart="62.40">
        <route edges="1:0 0:2 2:8"/>
    </vehicle>
    <vehicle id="157" depart="62.80">
        <route edges="10:9 9:0 0:2 2:8"/>
    </vehicle>
    <vehicle id="158" depart="63.20">
        <route edges="7:3 3:1 1:0 0:9"/>
    </vehicle>
    <vehicle id="159" depart="63.60">
        <route edges="7:3 3:1"/>
    </vehicle>
    <vehicle id="160" depart="64.00">
        <route edges="10:9 9:0 0:1 1:5"/>
    </vehicle>
    <vehicle id="161" depart="64.40">
        <route edges="2:0 0:1 1:3 3:7"/>
    </vehicle>
    <vehicle id="162" depart="64.80">
        <route edges="5:1 1:0 0:2 2:8"/>
    </vehicle>
    <vehicle id="163" depart="65.20">
        <route edges="5:1 1:0 0:2 2:8"/>
    </vehicle>
    <vehicle id="164" depart="65.60">
        <route edges="3:1 1:5 5:6"/>
    </vehicle>
    <vehicle id="167" depart="66.80">
        <route edges="1:0 0:2"/>
    </vehicle>
    <vehicle id="171" depart="68.40">
        <route edges="6:5 5:1 1:0 0:9"/>
    </vehicle>
    <vehicle id="172" depart="68.80">
        <route edges="8:2 2:0 0:1 1:3 3:7"/>
    </vehicle>
    <vehicle id="173" depart="69.20">
        <route edges="2:0 0:1 1:3 3:7"/>
    </vehicle>
    <vehicle id="175" depart="70.00">
        <route edges="8:2 2:0 0:1 1:3 3:7"/>
    </vehicle>
    <vehicle id="177" depart="70.80">
        <route edges="2:0"/>
    </vehicle>
    <vehicle id="178" depart="71.20">
        <route edges="10:9 9:0 0:2 2:8"/>
    </vehicle>
    <vehicle id="186" depart="74.40">
        <route edges="0:9"/>
    </vehicle>
    <vehicle id="189" depart="75.60">
        <route edges="7:3 3:1 1:0 0:2 2:8"/>
    </vehicle>
    <vehicle id="190" depart="76.00">
        <route edges="7:3 3:1 1:0 0:2 2:8"/>
    </vehicle>
    <vehicle id="191" depart="76.40">
        <route edges="6:5 5:1 1:0 0:2"/>
    </vehicle>
    <vehicle id="193" depart="77.20">
        <route edges="7:3 3:1 1:0 0:2 2:8"/>
    </vehicle>
    <vehicle id="195" depart="78.00">
        <route edges="8:2 2:0 0:1 1:3 3:7"/>
    </vehicle>
    <vehicle id="197" depart="78.80">
        <route edges="2:0 0:1 1:5"/>
    </vehicle>
    <vehicle id="198" depart="79.20">
        <route edges="3:1"/>
    </vehicle>
    <vehicle id="199" depart="79.60">
        <route edges="8:2 2:0 0:1 1:5 5:6"/>
    </vehicle>
    <vehicle id="200" depart="80.00">
        <route edges="3:1 1:0 0:9 9:10"/>
    </vehicle>
    <vehicle id="201" depart="80.40">
        <route edges="8:2 2:0 0:9"/>
    </vehicle>
    <vehicle id="202" depart="80.80">
        <route edges="7:3 3:1"/>
    </vehicle>
    <vehicle id="204" depart="81.60">
        <route edges="0:9 9:10"/>
    </vehicle>
    <vehicle id="208" depart="83.20">
        <route edges="7:3 3:1 1:0 0:2 2:8"/>
    </vehicle>
    <vehicle id="209" depart="83.60">
        <route edges="7:3 3:1 1:0 0:2"/>
    </vehicle>
    <vehicle id="210" depart="84.00">
        <route edges="7:3 3:1 1:0 0:2 2:8"/>
    </vehicle>
    <vehicle id="211" depart="84.40">
        <route edges="6:5 5:1 1:0 0:2 2:8"/>
    </vehicle>
    <vehicle id="213" depart="85.20">
        <route edges="6:5 5:1 1:0 0:2 2:8"/>
    </vehicle>
    <vehicle id="218" depart="87.20">
        <route edges="6:5 5:1 1:3 3:7"/>
    </vehicle>
    <vehicle id="220" depart="88.00">
        <route edges="2:0 0:1 1:3"/>
    </vehicle>
    <vehicle id="221" depart="88.40">
        <route edges="8:2 2:0 0:1 1:3 3:7"/>
    </vehicle>
    <vehicle id="224" depart="89.60">
        <route edges="10:9 9:0 0:2"/>
    </vehicle>
    <vehicle id="226" depart="90.40">
        <route edges="8:2 2:0 0:1 1:3 3:7"/>
    </vehicle>
    <vehicle id="227" depart="90.80">
        <route edges="7:3 3:1"/>
    </vehicle>
    <vehicle id="230" depart="92.00">
        <route edges="2:0 0:1 1:5"/>
    </vehicle>
    <vehicle id="233" depart="93.20">
        <route edges="1:5"/>
    </vehicle>
    <vehicle id="235" depart="94.00">
        <route edges="9:0 0:2 2:8"/>
    </vehicle>
    <vehicle id="236" depart="94.40">
        <route edges="8:2 2:0 0:1 1:3 3:7"/>
    </vehicle>
    <vehicle id="238" depart="95.20">
        <route edges="8:2 2:0"/>
    </vehicle>
    <vehicle id="240" depart="96.00">
        <route edges="2:0"/>
    </vehicle>
    <vehicle id="242" depart="96.80">
        <route edges="5:1 1:0 0:2 2:8"/>
    </vehicle>
    <vehicle id="244" depart="97.60">
        <route edges="0:9 9:10"/>
    </vehicle>
    <vehicle id="251" depart="100.40">
        <route edges="9:0 0:1 1:3"/>
    </vehicle>
    <vehicle id="254" depart="101.60">
        <route edges="8:2 2:0 0:9 9:10"/>
    </vehicle>
    <vehicle id="255" depart="102.00">
        <route edges="3:1 1:0 0:2 2:8"/>
    </vehicle>
    <vehicle id="256" depart="102.40">
        <route edges="8:2 2:0 0:1 1:3 3:7"/>
    </vehicle>
    <vehicle id="258" depart="103.20">
        <route edges="5:1 1:0 0:2"/>
    </vehicle>
    <vehicle id="259" depart="103.60">
        <route edges="3:1 1:0 0:2"/>
    </vehicle>
    <vehicle id="262" depart="104.80">
        <route edges="8:2 2:0 0:1 1:3 3:7"/>
    </vehicle>
    <vehicle id="264" depart="105.60">
        <route edges="3:1"/>
    </vehicle>
    <vehicle id="265" depart="106.00">
        <route edges="9:0 0:2"/>
    </vehicle>
    <vehicle id="267" depart="106.80">
        <route edges="2:0 0:1 1:3 3:7"/>
    </vehicle>
    <vehicle id="268" depart="107.20">
        <route edges="5:1 1:0 0:2 2:8"/>
    </vehicle>
    <vehicle id="269" depart="107.60">
        <route edges="8:2 2:0 0:9 9:10"/>
    </vehicle>
    <vehicle id="270" depart="108.00">
        <route edges="7:3 3:1 1:5"/>
    </vehicle>
    <vehicle id="273" depart="109.20">
        <route edges="7:3 3:1 1:5 5:6"/>
    </vehicle>
    <vehicle id="275" depart="110.00">
        <route edges="5:1"/>
    </vehicle>
    <vehicle id="277" depart="110.80">
        <route edges="10:9 9:0 0:1"/>
    </vehicle>
    <vehicle id="278" depart="111.20">
        <route edges="0:1 1:3 3:7"/>
    </vehicle>
    <vehicle id="282" depart="112.80">
        <route edges="6:5 5:1 1:0 0:9"/>
    </vehicle>
    <vehicle id="285" depart="114.00">
        <route edges="3:1"/>
    </vehicle>
    <vehicle id="287" depart="114.80">
        <route edges="0:9 9:10"/>
    </vehicle>
    <vehicle id="288" depart="115.20">
        <route edges="8:2 2:0 0:1 1:3"/>
    </vehicle>
    <vehicle id="291" depart="116.40">
        <route edges="9:0 0:2 2:8"/>
    </vehicle>
    <vehicle id="292" depart="116.80">
        <route edges="7:3 3:1 1:0 0:9 9:10"/>
    </vehicle>
    <vehicle id="293" depart="117.20">
        <route edges="8:2 2:0 0:9 9:10"/>
    </vehicle>
    <vehicle id="294" depart="117.60">
        <route edges="5:1 1:0 0:9"/>
    </vehicle>
    <vehicle id="295" depart="118.00">
        <route edges="8:2 2:0 0:1 1:3"/>
    </vehicle>
    <vehicle id="296" depart="118.40">
        <route edges="8:2 2:0 0:9"/>
    </vehicle>
    <vehicle id="298" depart="119.20">
        <route edges="3:1 1:5 5:6"/>
    </vehicle>
    <vehicle id="300" depart="120.00">
        <route edges="0:1"/>
    </vehicle>
    <vehicle id="302" depart="120.80">
        <route edges="2:0 0:9 9:10"/>
    </vehicle>
    <vehicle id="303" depart="121.20">
        <route edges="1:3 3:7"/>
    </vehicle>
    <vehicle id="307" depart="122.80">
        <route edges="6:5 5:1 1:0 0:2"/>
    </vehicle>
    <vehicle id="309" depart="123.60">
        <route edges="8:2 2:0 0:9 9:10"/>
    </vehicle>
    <vehicle id="311" depart="124.40">
        <route edges="7:3 3:1 1:0 0:9 9:10"/>
    </vehicle>
    <vehicle id="315" depart="126.00">
        <route edges="9:0 0:1 1:3 3:7"/>
    </vehicle>
    <vehicle id="317" depart="126.80">
        <route edges="8:2 2:0 0:1 1:3 3:7"/>
    </vehicle>
    <vehicle id="318" depart="127.20">
        <route edges="8:2 2:0 0:1 1:3 3:7"/>
    </vehicle>
    <vehicle id="319" depart="127.60">
        <route edges="7:3 3:1 1:0 0:2"/>
    </vehicle>
    <vehicle id="320" depart="128.00">
        <route edges="3:1 1:0 0:2 2:8"/>
    </vehicle>
    <vehicle id="324" depart="129.60">
        <route edges="7:3 3:1 1:0 0:9"/>
    </vehicle>
    <vehicle id="329" depart="131.60">
        <route edges="5:1 1:0 0:2 2:8"/>
    </vehicle>
    <vehicle id="331" depart="132.40">
        <route edges="6:5 5:1 1:3"/>
    </vehicle>
    <vehicle id="333" depart="133.20">
        <route edges="6:5 5:1 1:3"/>
    </vehicle>
    <vehicle id="334" depart="133.60">
        <route edges="3:1"/>
    </vehicle>
    <vehicle id="335" depart="134.00">
        <route edges="6:5 5:1 1:0 0:9 9:10"/>
    </vehicle>
    <vehicle id="337" depart="134.80">
        <route edges="8:2 2:0 0:1 1:3 3:7"/>
    </vehicle>
    <vehicle id="339" depart="135.60">
        <route edges="7:3 3:1 1:5 5:6"/>
    </vehicle>
    <vehicle id="340" depart="136.00">
        <route edges="3:1 1:0 0:2"/>
    </vehicle>
    <vehicle id="343" depart="137.20">
        <route edges="8:2 2:0 0:9"/>
    </vehicle>
    <vehicle id="344" depart="137.60">
        <route edges="8:2 2:0 0:9 9:10"/>
    </vehicle>
    <vehicle id="349" depart="139.60">
        <route edges="6:5 5:1 1:0 0:2"/>
    </vehicle>
    <vehicle id="354" depart="141.60">
        <route edges="8:2 2:0"/>
    </vehicle>
    <vehicle id="355" depart="142.00">
        <route edges="2:0 0:1 1:3"/>
    </vehicle>
    <vehicle id="356" depart="142.40">
        <route edges="9:0 0:1"/>
    </vehicle>
    <vehicle id="357" depart="142.80">
        <route edges="8:2 2:0 0:1 1:5"/>
    </vehicle>
    <vehicle id="358" depart="143.20">
        <route edges="0:1 1:5 5:6"/>
    </vehicle>
    <vehicle id="359" depart="143.60">
        <route edges="9:0"/>
    </vehicle>
    <vehicle id="361" depart="144.40">
        <route edges="8:2 2:0 0:1 1:5"/>
    </vehicle>
    <vehicle id="362" depart="144.80">
        <route edges="8:2 2:0 0:9"/>
    </vehicle>
    <vehicle id="365" depart="146.00">
        <route edges="6:5 5:1 1:3 3:7"/>
    </vehicle>
    <vehicle id="369" depart="147.60">
        <route edges="2:0 0:9 9:10"/>
    </vehicle>
    <vehicle id="372" depart="148.80">
        <route edges="5:1 1:3"/>
    </vehicle>
    <vehicle id="373" depart="149.20">
        <route edges="8:2 2:0 0:9 9:10"/>
    </vehicle>
    <vehicle id="374" depart="149.60">
        <route edges="6:5 5:1 1:0 0:9"/>
    </vehicle>
    <vehicle id="383" depart="153.20">
        <route edges="7:3 3:1 1:5 5:6"/>
    </vehicle>
    <vehicle id="386" depart="154.40">
        <route edges="8:2 2:0"/>
    </vehicle>
    <vehicle id="388" depart="155.20">
        <route edges="8:2 2:0 0:1 1:3"/>
    </vehicle>
    <vehicle id="390" depart="156.00">
        <route edges="1:5"/>
    </vehicle>
    <vehicle id="393" depart="157.20">
        <route edges="7:3 3:1 1:0"/>
    </vehicle>
    <vehicle id="394" depart="157.60">
        <route edges="3:1 1:0 0:2 2:8"/>
    </vehicle>
    <vehicle id="404" depart="161.60">
        <route edges="0:2 2:8"/>
    </vehicle>
    <vehicle id="405" depart="162.00">
        <route edges="5:1 1:0 0:9"/>
    </vehicle>
    <vehicle id="406" depart="162.40">
        <route edges="9:0 0:1 1:3 3:7"/>
    </vehicle>
    <vehicle id="410" depart="164.00">
        <route edges="1:5"/>
    </vehicle>
    <vehicle id="411" depart="164.40">
        <route edges="2:0 0:9"/>
    </vehicle>
    <vehicle id="412" depart="164.80">
        <route edges="5:1 1:3"/>
    </vehicle>
    <vehicle id="414" depart="165.60">
        <route edges="10:9 9:0 0:2 2:8"/>
    </vehicle>
    <vehicle id="415" depart="166.00">
        <route edges="6:5 5:1 1:0"/>
    </vehicle>
    <vehicle id="420" depart="168.00">
        <route edges="0:2"/>
    </vehicle>
    <vehicle id="421" depart="168.40">
        <route edges="0:9 9:10"/>
    </vehicle>
    <vehicle id="427" depart="170.80">
        <route edges="7:3 3:1"/>
    </vehicle>
    <vehicle id="430" depart="172.00">
        <route edges="1:3 3:7"/>
    </vehicle>
    <vehicle id="433" depart="173.20">
        <route edges="10:9 9:0 0:1"/>
    </vehicle>
    <vehicle id="438" depart="175.20">
        <route edges="2:0 0:1 1:3"/>
    </vehicle>
    <vehicle id="439" depart="175.60">
        <route edges="0:1 1:5 5:6"/>
    </vehicle>
    <vehicle id="440" depart="176.00">
        <route edges="7:3 3:1 1:5"/>
    </vehicle>
    <vehicle id="442" depart="176.80">
        <route edges="7:3 3:1 1:0 0:9 9:10"/>
    </vehicle>
    <vehicle id="444" depart="177.60">
        <route edges="2:0 0:1 1:5 5:6"/>
    </vehicle>
    <vehicle id="445" depart="178.00">
        <route edges="8:2 2:0 0:1"/>
    </vehicle>
    <vehicle id="446" depart="178.40">
        <route edges="2:0 0:1"/>
    </vehicle>
    <vehicle id="447" depart="178.80">
        <route edges="7:3 3:1 1:0 0:2"/>
    </vehicle>
    <vehicle id="448" depart="179.20">
        <route edges="8:2 2:0 0:1"/>
    </vehicle>
    <vehicle id="451" depart="180.40">
        <route edges="7:3 3:1 1:5 5:6"/>
    </vehicle>
    <vehicle id="452" depart="180.80">
        <route edges="8:2 2:0 0:9 9:10"/>
    </vehicle>
    <vehicle id="454" depart="181.60">
        <route edges="10:9 9:0 0:1 1:3 3:7"/>
    </vehicle>
    <vehicle id="455" depart="182.00">
        <route edges="8:2 2:0 0:1"/>
    </vehicle>
    <vehicle id="457" depart="182.80">
        <route edges="7:3 3:1 1:0 0:2 2:8"/>
    </vehicle>
    <vehicle id="458" depart="183.20">
        <route edges="7:3 3:1 1:0 0:2"/>
    </vehicle>
    <vehicle id="459" depart="183.60">
        <route edges="8:2 2:0 0:1 1:3 3:7"/>
    </vehicle>
    <vehicle id="460" depart="184.00">
        <route edges="0:2"/>
    </vehicle>
    <vehicle id="461" depart="184.40">
        <route edges="7:3 3:1 1:0 0:9"/>
    </vehicle>
    <vehicle id="463" depart="185.20">
        <route edges="5:1 1:0 0:2 2:8"/>
    </vehicle>
    <vehicle id="469" depart="187.60">
        <route edges="3:1 1:0 0:2 2:8"/>
    </vehicle>
    <vehicle id="470" depart="188.00">
        <route edges="3:1 1:5 5:6"/>
    </vehicle>
    <vehicle id="471" depart="188.40">
        <route edges="5:1 1:3 3:7"/>
    </vehicle>
    <vehicle id="472" depart="188.80">
        <route edges="8:2 2:0 0:1"/>
    </vehicle>
    <vehicle id="474" depart="189.60">
        <route edges="2:0 0:9 9:10"/>
    </vehicle>
    <vehicle id="476" depart="190.40">
        <route edges="8:2 2:0"/>
    </vehicle>
    <vehicle id="479" depart="191.60">
        <route edges="7:3 3:1 1:5 5:6"/>
    </vehicle>
    <vehicle id="482" depart="192.80">
        <route edges="7:3 3:1 1:5 5:6"/>
    </vehicle>
    <vehicle id="483" depart="193.20">
        <route edges="7:3 3:1 1:0 0:2 2:8"/>
    </vehicle>
    <vehicle id="484" depart="193.60">
        <route edges="3:1"/>
    </vehicle>
    <vehicle id="485" depart="194.00">
        <route edges="8:2 2:0"/>
    </vehicle>
    <vehicle id="488" depart="195.20">
        <route edges="0:2 2:8"/>
    </vehicle>
    <vehicle id="489" depart="195.60">
        <route edges="3:1 1:0 0:9 9:10"/>
    </vehicle>
    <vehicle id="490" depart="196.00">
        <route edges="7:3 3:1 1:0 0:2 2:8"/>
    </vehicle>
    <vehicle id="496" depart="198.40">
        <route edges="7:3 3:1 1:0"/>
    </vehicle>
    <vehicle id="497" depart="198.80">
        <route edges="7:3 3:1 1:0 0:9"/>
    </vehicle>
    <vehicle id="499" depart="199.60">
        <route edges="1:3 3:7"/>
    </vehicle>
    <vehicle id="500" depart="200.00">
        <route edges="1:0 0:2 2:8"/>
    </vehicle>
    <vehicle id="501" depart="200.40">
        <route edges="7:3 3:1 1:0 0:2 2:8"/>
    </vehicle>
    <vehicle id="502" depart="200.80">
        <route edges="7:3 3:1 1:0 0:2"/>
    </vehicle>
    <vehicle id="504" depart="201.60">
        <route edges="8:2 2:0 0:1 1:5 5:6"/>
    </vehicle>
    <vehicle id="506" depart="202.40">
        <route edges="8:2 2:0"/>
    </vehicle>
    <vehicle id="507" depart="202.80">
        <route edges="1:3"/>
    </vehicle>
    <vehicle id="509" depart="203.60">
        <route edges="0:9"/>
    </vehicle>
    <vehicle id="512" depart="204.80">
        <route edges="7:3 3:1 1:5"/>
    </vehicle>
    <vehicle id="517" depart="206.80">
        <route edges="8:2 2:0 0:1 1:3"/>
    </vehicle>
    <vehicle id="519" depart="207.60">
        <route edges="8:2 2:0 0:9 9:10"/>
    </vehicle>
    <vehicle id="521" depart="208.40">
        <route edges="8:2 2:0 0:1 1:3 3:7"/>
    </vehicle>
    <vehicle id="524" depart="209.60">
        <route edges="7:3 3:1 1:0 0:2 2:8"/>
    </vehicle>
    <vehicle id="526" depart="210.40">
        <route edges="8:2 2:0 0:1 1:5 5:6"/>
    </vehicle>
    <vehicle id="527" depart="210.80">
        <route edges="2:0 0:1 1:3"/>
    </vehicle>
    <vehicle id="528" depart="211.20">
        <route edges="8:2 2:0 0:9 9:10"/>
    </vehicle>
    <vehicle id="530" depart="212.00">
        <route edges="8:2 2:0 0:1 1:3"/>
    </vehicle>
    <vehicle id="532" depart="212.80">
        <route edges="8:2 2:0 0:9 9:10"/>
    </vehicle>
    <vehicle id="534" depart="213.60">
        <route edges="8:2 2:0 0:9 9:10"/>
    </vehicle>
    <vehicle id="537" depart="214.80">
        <route edges="8:2 2:0 0:1 1:5"/>
    </vehicle>
    <vehicle id="538" depart="215.20">
        <route edges="8:2 2:0 0:1 1:5 5:6"/>
    </vehicle>
    <vehicle id="540" depart="216.00">
        <route edges="3:1 1:0 0:2"/>
    </vehicle>
    <vehicle id="541" depart="216.40">
        <route edges="7:3 3:1 1:0"/>
    </vehicle>
    <vehicle id="542" depart="216.80">
        <route edges="2:0 0:9 9:10"/>
    </vehicle>
    <vehicle id="543" depart="217.20">
        <route edges="2:0 0:1 1:3 3:7"/>
    </vehicle>
    <vehicle id="544" depart="217.60">
        <route edges="2:0 0:1 1:3 3:7"/>
    </vehicle>
    <vehicle id="546" depart="218.40">
        <route edges="0:1 1:5 5:6"/>
    </vehicle>
    <vehicle id="547" depart="218.80">
        <route edges="3:1 1:5 5:6"/>
    </vehicle>
    <vehicle id="548" depart="219.20">
        <route edges="3:1 1:0 0:2 2:8"/>
    </vehicle>
    <vehicle id="549" depart="219.60">
        <route edges="7:3 3:1 1:0 0:2"/>
    </vehicle>
    <vehicle id="550" depart="220.00">
        <route edges="8:2 2:0 0:1 1:3 3:7"/>
    </vehicle>
    <vehicle id="552" depart="220.80">
        <route edges="0:9 9:10"/>
    </vehicle>
    <vehicle id="553" depart="221.20">
        <route edges="10:9 9:0 0:2 2:8"/>
    </vehicle>
    <vehicle id="555" depart="222.00">
        <route edges="10:9 9:0 0:2 2:8"/>
    </vehicle>
    <vehicle id="556" depart="222.40">
        <route edges="7:3 3:1 1:0 0:9 9:10"/>
    </vehicle>
    <vehicle id="558" depart="223.20">
        <route edges="2:0 0:1 1:3 3:7"/>
    </vehicle>
    <vehicle id="559" depart="223.60">
        <route edges="6:5 5:1 1:0 0:2"/>
    </vehicle>
    <vehicle id="561" depart="224.40">
        <route edges="10:9 9:0 0:2 2:8"/>
    </vehicle>
    <vehicle id="562" depart="224.80">
        <route edges="10:9 9:0 0:2 2:8"/>
    </vehicle>
    <vehicle id="564" depart="225.60">
        <route edges="8:2 2:0 0:1 1:5 5:6"/>
    </vehicle>
    <vehicle id="566" depart="226.40">
        <route edges="0:2 2:8"/>
    </vehicle>
    <vehicle id="567" depart="226.80">
        <route edges="8:2 2:0 0:1 1:3 3:7"/>
    </vehicle>
    <vehicle id="570" depart="228.00">
        <route edges="8:2 2:0 0:1 1:3"/>
    </vehicle>
    <vehicle id="572" depart="228.80">
        <route edges="6:5 5:1 1:0 0:9"/>
    </vehicle>
    <vehicle id="573" depart="229.20">
        <route edges="8:2 2:0"/>
    </vehicle>
    <vehicle id="574" depart="229.60">
        <route edges="3:1 1:0 0:9 9:10"/>
    </vehicle>
    <vehicle id="576" depart="230.40">
        <route edges="10:9 9:0 0:1 1:3 3:7"/>
    </vehicle>
    <vehicle id="577" depart="230.80">
        <route edges="8:2 2:0 0:9 9:10"/>
    </vehicle>
    <vehicle id="578" depart="231.20">
        <route edges="2:0 0:9 9:10"/>
    </vehicle>
    <vehicle id="579" depart="231.60">
        <route edges="0:1 1:3 3:7"/>
    </vehicle>
    <vehicle id="583" depart="233.20">
        <route edges="7:3 3:1 1:0 0:2 2:8"/>
    </vehicle>
    <vehicle id="584" depart="233.60">
        <route edges="9:0 0:2 2:8"/>
    </vehicle>
    <vehicle id="585" depart="234.00">
        <route edges="5:1 1:0 0:2"/>
    </vehicle>
    <vehicle id="588" depart="235.20">
        <route edges="0:1"/>
    </vehicle>
    <vehicle id="589" depart="235.60">
        <route edges="0:2 2:8"/>
    </vehicle>
    <vehicle id="594" depart="237.60">
        <route edges="6:5 5:1 1:0 0:2"/>
    </vehicle>
    <vehicle id="597" depart="238.80">
        <route edges="7:3 3:1 1:5 5:6"/>
    </vehicle>
    <vehicle id="601" depart="240.40">
        <route edges="5:1 1:0 0:2 2:8"/>
    </vehicle>
    <vehicle id="603" depart="241.20">
        <route edges="3:1 1:0 0:9 9:10"/>
    </vehicle>
    <vehicle id="604" depart="241.60">
        <route edges="6:5 5:1 1:3 3:7"/>
    </vehicle>
    <vehicle id="605" depart="242.00">
        <route edges="1:0 0:2 2:8"/>
    </vehicle>
    <vehicle id="608" depart="243.20">
        <route edges="7:3 3:1 1:0 0:9"/>
    </vehicle>
    <vehicle id="609" depart="243.60">
        <route edges="0:2"/>
    </vehicle>
    <vehicle id="610" depart="244.00">
        <route edges="2:0 0:1 1:3 3:7"/>
    </vehicle>
    <vehicle id="613" depart="245.20">
        <route edges="7:3 3:1 1:0 0:2"/>
    </vehicle>
    <vehicle id="614" depart="245.60">
        <route edges="3:1"/>
    </vehicle>
    <vehicle id="616" depart="246.40">
        <route edges="8:2 2:0 0:1 1:3 3:7"/>
    </vehicle>
    <vehicle id="621" depart="248.40">
        <route edges="9:0 0:1 1:5"/>
    </vehicle>
    <vehicle id="622" depart="248.80">
        <route edges="6:5 5:1 1:3"/>
    </vehicle>
    <vehicle id="623" depart="249.20">
        <route edges="3:1 1:0 0:2 2:8"/>
    </vehicle>
    <vehicle id="624" depart="249.60">
        <route edges="7:3 3:1 1:0 0:9 9:10"/>
    </vehicle>
    <vehicle id="625" depart="250.00">
        <route edges="3:1 1:0 0:2 2:8"/>
    </vehicle>
    <vehicle id="627" depart="250.80">
        <route edges="1:0 0:9"/>
    </vehicle>
    <vehicle id="629" depart="251.60">
        <route edges="5:1 1:3"/>
    </vehicle>
    <vehicle id="634" depart="253.60">
        <route edges="2:0 0:1 1:5 5:6"/>
    </vehicle>
    <vehicle id="635" depart="254.00">
        <route edges="0:1 1:5"/>
    </vehicle>
    <vehicle id="641" depart="256.40">
        <route edges="8:2 2:0"/>
    </vehicle>
    <vehicle id="644" depart="257.60">
        <route edges="5:1 1:0"/>
    </vehicle>
    <vehicle id="647" depart="258.80">
        <route edges="7:3 3:1"/>
    </vehicle>
    <vehicle id="648" depart="259.20">
        <route edges="10:9 9:0 0:1 1:3"/>
    </vehicle>
    <vehicle id="649" depart="259.60">
        <route edges="9:0 0:1 1:3 3:7"/>
    </vehicle>
    <vehicle id="655" depart="262.00">
        <route edges="7:3 3:1 1:0 0:2 2:8"/>
    </vehicle>