<?xml version="1.0" encoding="UTF-8"?>

<!-- generated on Thu Feb 13 14:16:28 2014 by SUMO duarouter Version 0.18.0
<?xml version="1.0" encoding="UTF-8"?>

<configuration xmlns:xsi="http://www.w3.org/2001/XMLSchema-instance" xsi:noNamespaceSchemaLocation="http://sumo.sf.net/xsd/duarouterConfiguration.xsd">

    <input>
        <net-file value="twinT.net.xml"/>
        <trip-files value="experimentos/twinT.p1.0.3.trips.xml"/>
    </input>

    <output>
        <output-file value="experimentos/twinT.p1.0.3.rou.xml"/>
    </output>

    <processing>
        <ignore-errors value="true"/>
    </processing>

    <random_number>
        <random value="true"/>
    </random_number>

</configuration>
-->

<routes xmlns:xsi="http://www.w3.org/2001/XMLSchema-instance" xsi:noNamespaceSchemaLocation="http://sumo.sf.net/xsd/routes_file.xsd">
    <vehicle id="0" depart="0.00">
        <route edges="10:9 9:0"/>
    </vehicle>
    <vehicle id="3" depart="3.00">
        <route edges="7:3 3:1 1:0"/>
    </vehicle>
    <vehicle id="7" depart="7.00">
        <route edges="10:9 9:0"/>
    </vehicle>
    <vehicle id="8" depart="8.00">
        <route edges="7:3 3:1"/>
    </vehicle>
    <vehicle id="9" depart="9.00">
        <route edges="2:0 0:1 1:3 3:7"/>
    </vehicle>
    <vehicle id="10" depart="10.00">
        <route edges="2:0 0:1 1:3 3:7"/>
    </vehicle>
    <vehicle id="12" depart="12.00">
        <route edges="2:0 0:1 1:3 3:7"/>
    </vehicle>
    <vehicle id="13" depart="13.00">
        <route edges="7:3 3:1 1:0 0:2 2:8"/>
    </vehicle>
    <vehicle id="16" depart="16.00">
        <route edges="6:5 5:1 1:0"/>
    </vehicle>
    <vehicle id="18" depart="18.00">
        <route edges="3:1 1:0 0:9 9:10"/>
    </vehicle>
    <vehicle id="20" depart="20.00">
        <route edges="7:3 3:1 1:0 0:2"/>
    </vehicle>
    <vehicle id="21" depart="21.00">
        <route edges="6:5 5:1 1:0 0:2 2:8"/>
    </vehicle>
    <vehicle id="22" depart="22.00">
        <route edges="7:3 3:1 1:0 0:2 2:8"/>
    </vehicle>
    <vehicle id="24" depart="24.00">
        <route edges="2:0 0:1 1:3 3:7"/>
    </vehicle>
    <vehicle id="25" depart="25.00">
        <route edges="6:5 5:1 1:0 0:9 9:10"/>
    </vehicle>
    <vehicle id="32" depart="32.00">
        <route edges="10:9 9:0 0:1 1:3 3:7"/>
    </vehicle>
    <vehicle id="33" depart="33.00">
        <route edges="7:3 3:1 1:0 0:2"/>
    </vehicle>
    <vehicle id="35" depart="35.00">
        <route edges="2:0 0:1 1:3 3:7"/>
    </vehicle>
    <vehicle id="37" depart="37.00">
        <route edges="0:2"/>
    </vehicle>
    <vehicle id="39" depart="39.00">
        <route edges="1:5 5:6"/>
    </vehicle>
    <vehicle id="40" depart="40.00">
        <route edges="5:1 1:0"/>
    </vehicle>
    <vehicle id="44" depart="44.00">
        <route edges="9:0 0:1 1:3 3:7"/>
    </vehicle>
    <vehicle id="45" depart="45.00">
        <route edges="2:0 0:1 1:3 3:7"/>
    </vehicle>
    <vehicle id="46" depart="46.00">
        <route edges="8:2 2:0 0:1 1:3 3:7"/>
    </vehicle>
    <vehicle id="49" depart="49.00">
        <route edges="1:0 0:2 2:8"/>
    </vehicle>
    <vehicle id="50" depart="50.00">
        <route edges="5:1 1:0 0:2 2:8"/>
    </vehicle>
    <vehicle id="55" depart="55.00">
        <route edges="2:0 0:1 1:3 3:7"/>
    </vehicle>
    <vehicle id="56" depart="56.00">
        <route edges="6:5 5:1 1:3 3:7"/>
    </vehicle>
    <vehicle id="57" depart="57.00">
        <route edges="8:2 2:0 0:1 1:3 3:7"/>
    </vehicle>
    <vehicle id="58" depart="58.00">
        <route edges="9:0 0:1 1:5"/>
    </vehicle>
    <vehicle id="63" depart="63.00">
        <route edges="6:5 5:1 1:3"/>
    </vehicle>
    <vehicle id="64" depart="64.00">
        <route edges="6:5 5:1 1:0 0:2 2:8"/>
    </vehicle>
    <vehicle id="67" depart="67.00">
        <route edges="6:5 5:1 1:0 0:9"/>
    </vehicle>
    <vehicle id="68" depart="68.00">
        <route edges="10:9 9:0 0:1 1:5"/>
    </vehicle>
    <vehicle id="69" depart="69.00">
        <route edges="7:3 3:1 1:5"/>
    </vehicle>
    <vehicle id="70" depart="70.00">
        <route edges="3:1"/>
    </vehicle>
    <vehicle id="71" depart="71.00">
        <route edges="3:1"/>
    </vehicle>
    <vehicle id="72" depart="72.00">
        <route edges="7:3 3:1 1:0 0:2"/>
    </vehicle>
    <vehicle id="76" depart="76.00">
        <route edges="10:9 9:0 0:1 1:3 3:7"/>
    </vehicle>
    <vehicle id="77" depart="77.00">
        <route edges="8:2 2:0 0:1"/>
    </vehicle>
    <vehicle id="81" depart="81.00">
        <route edges="3:1 1:0 0:2"/>
    </vehicle>
    <vehicle id="82" depart="82.00">
        <route edges="8:2 2:0 0:1 1:3 3:7"/>
    </vehicle>
    <vehicle id="84" depart="84.00">
        <route edges="1:3 3:7"/>
    </vehicle>
    <vehicle id="88" depart="88.00">
        <route edges="10:9 9:0 0:2 2:8"/>
    </vehicle>
    <vehicle id="89" depart="89.00">
        <route edges="2:0 0:9 9:10"/>
    </vehicle>
    <vehicle id="90" depart="90.00">
        <route edges="9:0 0:1 1:5 5:6"/>
    </vehicle>
    <vehicle id="91" depart="91.00">
        <route edges="8:2 2:0 0:1 1:3 3:7"/>
    </vehicle>
    <vehicle id="92" depart="92.00">
        <route edges="7:3 3:1 1:0 0:2 2:8"/>
    </vehicle>
    <vehicle id="95" depart="95.00">
        <route edges="7:3 3:1 1:0 0:9 9:10"/>
    </vehicle>
    <vehicle id="96" depart="96.00">
        <route edges="10:9 9:0 0:2 2:8"/>
    </vehicle>
    <vehicle id="101" depart="101.00">
        <route edges="2:0 0:1"/>
    </vehicle>
    <vehicle id="102" depart="102.00">
        <route edges="2:0"/>
    </vehicle>
    <vehicle id="103" depart="103.00">
        <route edges="10:9 9:0 0:2 2:8"/>
    </vehicle>
    <vehicle id="104" depart="104.00">
        <route edges="10:9 9:0 0:2 2:8"/>
    </vehicle>
    <vehicle id="106" depart="106.00">
        <route edges="8:2 2:0"/>
    </vehicle>
    <vehicle id="107" depart="107.00">
        <route edges="7:3 3:1 1:0 0:2 2:8"/>
    </vehicle>
    <vehicle id="108" depart="108.00">
        <route edges="6:5 5:1 1:0"/>
    </vehicle>
    <vehicle id="110" depart="110.00">
        <route edges="8:2 2:0 0:1 1:3"/>
    </vehicle>
    <vehicle id="112" depart="112.00">
        <route edges="3:1"/>
    </vehicle>
    <vehicle id="113" depart="113.00">
        <route edges="2:0 0:1 1:3"/>
    </vehicle>
    <vehicle id="114" depart="114.00">
        <route edges="10:9 9:0 0:1 1:5 5:6"/>
    </vehicle>
    <vehicle id="115" depart="115.00">
        <route edges="9:0 0:1 1:3 3:7"/>
    </vehicle>
    <vehicle id="117" depart="117.00">
        <route edges="7:3 3:1 1:0 0:9 9:10"/>
    </vehicle>
    <vehicle id="118" depart="118.00">
        <route edges="7:3 3:1 1:0 0:2"/>
    </vehicle>
    <vehicle id="120" depart="120.00">
        <route edges="3:1 1:0 0:2 2:8"/>
    </vehicle>
    <vehicle id="122" depart="122.00">
        <route edges="0:2 2:8"/>
    </vehicle>
    <vehicle id="124" depart="124.00">
        <route edges="8:2 2:0 0:1 1:3"/>
    </vehicle>
    <vehicle id="125" depart="125.00">
        <route edges="3:1 1:5 5:6"/>
    </vehicle>
    <vehicle id="126" depart="126.00">
        <route edges="7:3 3:1 1:0 0:9"/>
    </vehicle>
    <vehicle id="127" depart="127.00">
        <route edges="6:5 5:1 1:3 3:7"/>
    </vehicle>
    <vehicle id="128" depart="128.00">
        <route edges="8:2 2:0 0:1"/>
    </vehicle>
    <vehicle id="130" depart="130.00">
        <route edges="2:0 0:1"/>
    </vehicle>
    <vehicle id="133" depart="133.00">
        <route edges="2:0"/>
    </vehicle>
    <vehicle id="135" depart="135.00">
        <route edges="1:3 3:7"/>
    </vehicle>
    <vehicle id="140" depart="140.00">
        <route edges="8:2 2:0 0:9 9:10"/>
    </vehicle>
    <vehicle id="143" depart="143.00">
        <route edges="8:2 2:0"/>
    </vehicle>
    <vehicle id="145" depart="145.00">
        <route edges="8:2 2:0"/>
    </vehicle>
    <vehicle id="150" depart="150.00">
        <route edges="9:0 0:2 2:8"/>
    </vehicle>
    <vehicle id="151" depart="151.00">
        <route edges="8:2 2:0"/>
    </vehicle>
    <vehicle id="153" depart="153.00">
        <route edges="1:3 3:7"/>
    </vehicle>
    <vehicle id="159" depart="159.00">
        <route edges="2:0 0:1"/>
    </vehicle>
    <vehicle id="161" depart="161.00">
        <route edges="7:3 3:1 1:0 0:2 2:8"/>
    </vehicle>
    <vehicle id="164" depart="164.00">
        <route edges="8:2 2:0 0:9 9:10"/>
    </vehicle>
    <vehicle id="167" depart="167.00">
        <route edges="8:2 2:0 0:1 1:3"/>
    </vehicle>
    <vehicle id="169" depart="169.00">
        <route edges="7:3 3:1 1:0"/>
    </vehicle>
    <vehicle id="170" depart="170.00">
        <route edges="10:9 9:0 0:1"/>
    </vehicle>
    <vehicle id="171" depart="171.00">
        <route edges="8:2 2:0 0:1 1:3 3:7"/>
    </vehicle>
    <vehicle id="172" depart="172.00">
        <route edges="7:3 3:1 1:0 0:2 2:8"/>
    </vehicle>
    <vehicle id="173" depart="173.00">
        <route edges="0:9"/>
    </vehicle>
    <vehicle id="175" depart="175.00">
        <route edges="5:1 1:0 0:2"/>
    </vehicle>
    <vehicle id="178" depart="178.00">
        <route edges="7:3 3:1 1:0 0:9"/>
    </vehicle>
    <vehicle id="179" depart="179.00">
        <route edges="8:2 2:0 0:1 1:3"/>
    </vehicle>
    <vehicle id="180" depart="180.00">
        <route edges="10:9 9:0 0:1 1:3"/>
    </vehicle>
    <vehicle id="181" depart="181.00">
        <route edges="0:1 1:3 3:7"/>
    </vehicle>
    <vehicle id="183" depart="183.00">
        <route edges="5:1 1:3"/>
    </vehicle>
    <vehicle id="185" depart="185.00">
        <route edges="8:2 2:0 0:1 1:5 5:6"/>
    </vehicle>
    <vehicle id="186" depart="186.00">
        <route edges="8:2 2:0"/>
    </vehicle>
    <vehicle id="187" depart="187.00">
        <route edges="10:9 9:0 0:2"/>
    </vehicle>
    <vehicle id="191" depart="191.00">
        <route edges="8:2 2:0 0:9 9:10"/>
    </vehicle>
    <vehicle id="194" depart="194.00">
        <route edges="8:2 2:0 0:9"/>
    </vehicle>
    <vehicle id="196" depart="196.00">
        <route edges="8:2 2:0 0:9 9:10"/>
    </vehicle>
    <vehicle id="197" depart="197.00">
        <route edges="6:5 5:1 1:3 3:7"/>
    </vehicle>
    <vehicle id="198" depart="198.00">
        <route edges="1:0 0:2"/>
    </vehicle>
    <vehicle id="200" depart="200.00">
        <route edges="10:9 9:0 0:1 1:5 5:6"/>
    </vehicle>
    <vehicle id="205" depart="205.00">
        <route edges="1:0 0:2 2:8"/>
    </vehicle>
    <vehicle id="206" depart="206.00">
        <route edges="10:9 9:0 0:1 1:3 3:7"/>
    </vehicle>
    <vehicle id="208" depart="208.00">
        <route edges="1:3 3:7"/>
    </vehicle>
    <vehicle id="211" depart="211.00">
        <route edges="6:5 5:1 1:3 3:7"/>
    </vehicle>
    <vehicle id="212" depart="212.00">
        <route edges="8:2 2:0 0:1 1:3 3:7"/>
    </vehicle>
    <vehicle id="213" depart="213.00">
        <route edges="6:5 5:1 1:3"/>
    </vehicle>
    <vehicle id="215" depart="215.00">
        <route edges="3:1 1:5 5:6"/>
    </vehicle>
    <vehicle id="216" depart="216.00">
        <route edges="3:1 1:5 5:6"/>
    </vehicle>
    <vehicle id="217" depart="217.00">
        <route edges="7:3 3:1 1:0 0:2"/>
    </vehicle>
    <vehicle id="221" depart="221.00">
        <route edges="8:2 2:0 0:9"/>
    </vehicle>
    <vehicle id="224" depart="224.00">
        <route edges="0:1 1:3 3:7"/>
    </vehicle>
    <vehicle id="225" depart="225.00">
        <route edges="3:1 1:0 0:2"/>
    </vehicle>
    <vehicle id="227" depart="227.00">
        <route edges="3:1 1:0 0:9"/>
    </vehicle>
    <vehicle id="228" depart="228.00">
        <route edges="1:3 3:7"/>
    </vehicle>
    <vehicle id="230" depart="230.00">
        <route edges="5:1"/>
    </vehicle>
    <vehicle id="232" depart="232.00">
        <route edges="3:1 1:0 0:2 2:8"/>
    </vehicle>
    <vehicle id="233" depart="233.00">
        <route edges="5:1 1:0 0:2 2:8"/>
    </vehicle>
    <vehicle id="234" depart="234.00">
        <route edges="8:2 2:0 0:1 1:5 5:6"/>
    </vehicle>
    <vehicle id="235" depart="235.00">
        <route edges="7:3 3:1"/>
    </vehicle>
    <vehicle id="236" depart="236.00">
        <route edges="10:9 9:0 0:2"/>
    </vehicle>
    <vehicle id="237" depart="237.00">
        <route edges="10:9 9:0 0:1"/>
    </vehicle>
    <vehicle id="238" depart="238.00">
        <route edges="7:3 3:1 1:0 0:2 2:8"/>
    </vehicle>
    <vehicle id="240" depart="240.00">
        <route edges="7:3 3:1 1:0 0:2"/>
    </vehicle>
    <vehicle id="242" depart="242.00">
        <route edges="10:9 9:0 0:2 2:8"/>
    </vehicle>
    <vehicle id="243" depart="243.00">
        <route edges="0:2"/>
    </vehicle>
    <vehicle id="244" depart="244.00">
        <route edges="3:1 1:0 0:2"/>
    </vehicle>
    <vehicle id="247" depart="247.00">
        <route edges="7:3 3:1 1:0 0:2"/>
    </vehicle>
    <vehicle id="251" depart="251.00">
        <route edges="7:3 3:1"/>
    </vehicle>
    <vehicle id="252" depart="252.00">
        <route edges="9:0 0:1 1:5 5:6"/>
    </vehicle>
    <vehicle id="254" depart="254.00">
        <route edges="10:9 9:0 0:2 2:8"/>
    </vehicle>
    <vehicle id="255" depart="255.00">
        <route edges="3:1"/>
    </vehicle>
    <vehicle id="256" depart="256.00">
        <route edges="3:1"/>
    </vehicle>
    <vehicle id="257" depart="257.00">
        <route edges="6:5 5:1 1:0 0:2"/>
    </vehicle>
    <vehicle id="258" depart="258.00">
        <route edges="5:1 1:3 3:7"/>
    </vehicle>
    <vehicle id="259" depart="259.00">
        <route edges="7:3 3:1"/>
    </vehicle>
    <vehicle id="260" depart="260.00">
        <route edges="8:2 2:0 0:1 1:3 3:7"/>
    </vehicle>
    <vehicle id="261" depart="261.00">
        <route edges="5:1 1:3"/>
    </vehicle>
    <vehicle id="263" depart="263.00">
        <route edges="7:3 3:1 1:0 0:2"/>
    </vehicle>
    <vehicle id="265" depart="265.00">
        <route edges="8:2 2:0 0:1 1:3 3:7"/>
    </vehicle>
    <vehicle id="266" depart="266.00">
        <route edges="0:1 1:5 5:6"/>
    </vehicle>
    <vehicle id="267" depart="267.00">
        <route edges="7:3 3:1"/>
    </vehicle>
    <vehicle id="268" depart="268.00">
        <route edges="10:9 9:0 0:1 1:3"/>
    </vehicle>
    <vehicle id="269" depart="269.00">
        <route edges="6:5 5:1 1:3 3:7"/>
    </vehicle>
    <vehicle id="270" depart="270.00">
        <route edges="7:3 3:1 1:5"/>
    </vehicle>
    <vehicle id="272" depart="272.00">
        <route edges="1:3"/>
    </vehicle>
    <vehicle id="286" depart="286.00">
        <route edges="3:1 1:5 5:6"/>
    </vehicle>
    <vehicle id="287" depart="287.00">
        <route edges="2:0 0:1 1:3 3:7"/>
    </vehicle>
    <vehicle id="288" depart="288.00">
        <route edges="1:0 0:2"/>
    </vehicle>
    <vehicle id="292" depart="292.00">
        <route edges="3:1 1:5 5:6"/>
    </vehicle>
    <vehicle id="296" depart="296.00">
        <route edges="1:0 0:2"/>
    </vehicle>
    <vehicle id="298" depart="298.00">
        <route edges="8:2 2:0"/>
    </vehicle>
    <vehicle id="299" depart="299.00">
        <route edges="3:1 1:5"/>
    </vehicle>
    <vehicle id="301" depart="301.00">
        <route edges="2:0 0:1 1:3 3:7"/>
    </vehicle>
    <vehicle id="302" depart="302.00">
        <route edges="0:1"/>
    </vehicle>
    <vehicle id="303" depart="303.00">
        <route edges="8:2 2:0 0:1 1:5 5:6"/>
    </vehicle>
    <vehicle id="304" depart="304.00">
        <route edges="8:2 2:0 0:1 1:3 3:7"/>
    </vehicle>
    <vehicle id="305" depart="305.00">
        <route edges="3:1 1:0 0:2 2:8"/>
    </vehicle>
    <vehicle id="308" depart="308.00">
        <route edges="7:3 3:1 1:0 0:2 2:8"/>
    </vehicle>
    <vehicle id="310" depart="310.00">
        <route edges="3:1 1:0 0:2 2:8"/>
    </vehicle>
    <vehicle id="311" depart="311.00">
        <route edges="0:1"/>
    </vehicle>
    <vehicle id="315" depart="315.00">
        <route edges="7:3 3:1 1:5 5:6"/>
    </vehicle>
    <vehicle id="318" depart="318.00">
        <route edges="3:1 1:0 0:2 2:8"/>
    </vehicle>
    <vehicle id="320" depart="320.00">
        <route edges="7:3 3:1"/>
    </vehicle>
    <vehicle id="322" depart="322.00">
        <route edges="1:3"/>
    </vehicle>
    <vehicle id="323" depart="323.00">
        <route edges="8:2 2:0"/>
    </vehicle>
    <vehicle id="324" depart="324.00">
        <route edges="5:1 1:3 3:7"/>
    </vehicle>
    <vehicle id="325" depart="325.00">
        <route edges="1:3 3:7"/>
    </vehicle>
    <vehicle id="329" depart="329.00">
        <route edges="3:1 1:0 0:9"/>
    </vehicle>
    <vehicle id="331" depart="331.00">
        <route edges="7:3 3:1 1:0 0:2 2:8"/>
    </vehicle>
    <vehicle id="332" depart="332.00">
        <route edges="3:1 1:0"/>
    </vehicle>
    <vehicle id="333" depart="333.00">
        <route edges="7:3 3:1 1:0 0:2 2:8"/>
    </vehicle>
    <vehicle id="334" depart="334.00">
        <route edges="7:3 3:1 1:0 0:9 9:10"/>
    </vehicle>
    <vehicle id="341" depart="341.00">
        <route edges="5:1 1:3 3:7"/>
    </vehicle>
    <vehicle id="343" depart="343.00">
        <route edges="8:2 2:0"/>
    </vehicle>
    <vehicle id="345" depart="345.00">
        <route edges="8:2 2:0 0:1 1:3 3:7"/>
    </vehicle>
    <vehicle id="348" depart="348.00">
        <route edges="0:9 9:10"/>
    </vehicle>
    <vehicle id="351" depart="351.00">
        <route edges="10:9 9:0 0:2 2:8"/>
    </vehicle>
    <vehicle id="352" depart="352.00">
        <route edges="8:2 2:0"/>
    </vehicle>
    <vehicle id="353" depart="353.00">
        <route edges="2:0 0:1 1:3 3:7"/>
    </vehicle>
    <vehicle id="355" depart="355.00">
        <route edges="1:0 0:2 2:8"/>
    </vehicle>
    <vehicle id="356" depart="356.00">
        <route edges="2:0 0:9"/>
    </vehicle>
    <vehicle id="357" depart="357.00">
        <route edges="3:1"/>
    </vehicle>
    <vehicle id="360" depart="360.00">
        <route edges="7:3 3:1 1:0 0:2"/>
    </vehicle>
    <vehicle id="363" depart="363.00">
        <route edges="8:2 2:0 0:9 9:10"/>
    </vehicle>
    <vehicle id="364" depart="364.00">
        <route edges="3:1 1:0 0:2 2:8"/>
    </vehicle>
    <vehicle id="367" depart="367.00">
        <route edges="8:2 2:0 0:1 1:3 3:7"/>
    </vehicle>
    <vehicle id="368" depart="368.00">
        <route edges="8:2 2:0"/>
    </vehicle>
    <vehicle id="369" depart="369.00">
        <route edges="8:2 2:0 0:1"/>
    </vehicle>
    <vehicle id="370" depart="370.00">
        <route edges="2:0 0:1 1:5"/>
    </vehicle>
    <vehicle id="373" depart="373.00">
        <route edges="7:3 3:1"/>
    </vehicle>
    <vehicle id="378" depart="378.00">
        <route edges="5:1 1:0 0:2"/>
    </vehicle>
    <vehicle id="379" depart="379.00">
        <route edges="8:2 2:0 0:1 1:3 3:7"/>
    </vehicle>
    <vehicle id="380" depart="380.00">
        <route edges="0:2"/>
    </vehicle>
    <vehicle id="381" depart="381.00">
        <route edges="7:3 3:1 1:0"/>
    </vehicle>
    <vehicle id="382" depart="382.00">
        <route edges="2:0 0:1 1:3"/>
    </vehicle>
    <vehicle id="385" depart="385.00">
        <route edges="2:0 0:9 9:10"/>
    </vehicle>
    <vehicle id="388" depart="388.00">
        <route edges="9:0 0:1 1:5 5:6"/>
    </vehicle>
    <vehicle id="391" depart="391.00">
        <route edges="3:1"/>
    </vehicle>
    <vehicle id="392" depart="392.00">
        <route edges="7:3 3:1 1:0 0:9"/>
    </vehicle>
    <vehicle id="395" depart="395.00">
        <route edges="2:0"/>
    </vehicle>
    <vehicle id="397" depart="397.00">
        <route edges="7:3 3:1 1:0 0:2 2:8"/>
    </vehicle>
    <vehicle id="399" depart="399.00">
        <route edges="8:2 2:0 0:9 9:10"/>
    </vehicle>
    <vehicle id="400" depart="400.00">
        <route edges="8:2 2:0 0:1"/>
    </vehicle>
    <vehicle id="403" depart="403.00">
        <route edges="7:3 3:1 1:0 0:2 2:8"/>
    </vehicle>
    <vehicle id="406" depart="406.00">
        <route edges="8:2 2:0 0:1 1:3"/>
    </vehicle>
    <vehicle id="408" depart="408.00">
        <route edges="1:3"/>
    </vehicle>
    <vehicle id="409" depart="409.00">
        <route edges="2:0 0:1 1:3 3:7"/>
    </vehicle>
    <vehicle id="411" depart="411.00">
        <route edges="5:1 1:0 0:2"/>
    </vehicle>
    <vehicle id="412" depart="412.00">
        <route edges="8:2 2:0 0:1 1:5 5:6"/>
    </vehicle>
    <vehicle id="414" depart="414.00">
        <route edges="9:0 0:2"/>
    </vehicle>
    <vehicle id="415" depart="415.00">
        <route edges="6:5 5:1 1:3 3:7"/>
    </vehicle>
    <vehicle id="418" depart="418.00">
        <route edges="5:1 1:0"/>
    </vehicle>
    <vehicle id="421" depart="421.00">
        <route edges="1:5"/>
    </vehicle>
    <vehicle id="426" depart="426.00">
        <route edges="6:5 5:1 1:0 0:9 9:10"/>
    </vehicle>
    <vehicle id="427" depart="427.00">
        <route edges="2:0 0:1 1:3 3:7"/>
    </vehicle>
    <vehicle id="431" depart="431.00">
        <route edges="8:2 2:0 0:1 1:3"/>
    </vehicle>
    <vehicle id="432" depart="432.00">
        <route edges="1:5"/>
    </vehicle>
    <vehicle id="438" depart="438.00">
        <route edges="8:2 2:0 0:1 1:3 3:7"/>
    </vehicle>
    <vehicle id="445" depart="445.00">
        <route edges="10:9 9:0 0:1 1:3 3:7"/>
    </vehicle>
    <vehicle id="446" depart="446.00">
        <route edges="10:9 9:0 0:2 2:8"/>
    </vehicle>
    <vehicle id="450" depart="450.00">
        <route edges="8:2 2:0"/>
    </vehicle>
    <vehicle id="451" depart="451.00">
        <route edges="5:1 1:0 0:9 9:10"/>
    </vehicle>
    <vehicle id="455" depart="455.00">
        <route edges="8:2 2:0"/>
    </vehicle>
    <vehicle id="458" depart="458.00">
        <route edges="6:5 5:1 1:0 0:2 2:8"/>
    </vehicle>
    <vehicle id="461" depart="461.00">
        <route edges="8:2 2:0 0:1 1:5 5:6"/>
    </vehicle>
    <vehicle id="463" depart="463.00">
        <route edges="3:1 1:0 0:2"/>
    </vehicle>
    <vehicle id="470" depart="470.00">
        <route edges="1:3 3:7"/>
    </vehicle>
    <vehicle id="471" depart="471.00">
        <route edges="6:5 5:1 1:0"/>
    </vehicle>
    <vehicle id="472" depart="472.00">
        <route edges="6:5 5:1 1:0 0:2 2:8"/>
    </vehicle>
    <vehicle id="473" depart="473.00">
        <route edges="2:0 0:1"/>
    </vehicle>
    <vehicle id="476" depart="476.00">
        <route edges="10:9 9:0 0:2 2:8"/>
    </vehicle>
    <vehicle id="478" depart="478.00">
        <route edges="6:5 5:1 1:3 3:7"/>
    </vehicle>
    <vehicle id="480" depart="480.00">
        <route edges="7:3 3:1 1:0 0:2 2:8"/>
    </vehicle>
    <vehicle id="481" depart="481.00">
        <route edges="10:9 9:0 0:2 2:8"/>
    </vehicle>
    <vehicle id="482" depart="482.00">
        <route edges="7:3 3:1 1:5"/>
    </vehicle>
    <vehicle id="487" depart="487.00">
        <route edges="7:3 3:1 1:5 5:6"/>
    </vehicle>
    <vehicle id="488" depart="488.00">
        <route edges="6:5 5:1 1:0 0:9"/>
    </vehicle>
    <vehicle id="492" depart="492.00">
        <route edges="8:2 2:0 0:1 1:3 3:7"/>
    </vehicle>
    <vehicle id="498" depart="498.00">
        <route edges="10:9 9:0 0:1 1:5 5:6"/>
    </vehicle>
    <vehicle id="499" depart="499.00">
        <route edges="7:3 3:1 1:5 5:6"/>
    </vehicle>
    <vehicle id="500" depart="500.00">
        <route edges="8:2 2:0 0:1 1:3 3:7"/>
    </vehicle>
    <vehicle id="504" depart="504.00">
        <route edges="7:3 3:1 1:0 0:2 2:8"/>
    </vehicle>
    <vehicle id="505" depart="505.00">
        <route edges="0:2 2:8"/>
    </vehicle>
    <vehicle id="507" depart="507.00">
        <route edges="2:0 0:1 1:5"/>
    </vehicle>
    <vehicle id="509" depart="509.00">
        <route edges="7:3 3:1 1:0"/>
    </vehicle>
    <vehicle id="512" depart="512.00">
        <route edges="8:2 2:0 0:1 1:3"/>
    </vehicle>
    <vehicle id="513" depart="513.00">
        <route edges="2:0 0:1 1:3"/>
    </vehicle>
    <vehicle id="517" depart="517.00">
        <route edges="1:0 0:2"/>
    </vehicle>
    <vehicle id="519" depart="519.00">
        <route edges="8:2 2:0 0:9 9:10"/>
    </vehicle>
    <vehicle id="520" depart="520.00">
        <route edges="8:2 2:0 0:1 1:3 3:7"/>
    </vehicle>
    <vehicle id="521" depart="521.00">
        <route edges="8:2 2:0"/>
    </vehicle>
    <vehicle id="525" depart="525.00">
        <route edges="8:2 2:0 0:1 1:3"/>
    </vehicle>
    <vehicle id="528" depart="528.00">
        <route edges="10:9 9:0 0:1 1:3"/>
    </vehicle>
    <vehicle id="529" depart="529.00">
        <route edges="1:5 5:6"/>
    </vehicle>
    <vehicle id="534" depart="534.00">
        <route edges="8:2 2:0 0:1 1:3 3:7"/>
    </vehicle>
    <vehicle id="535" depart="535.00">
        <route edges="8:2 2:0 0:1 1:5 5:6"/>
    </vehicle>
    <vehicle id="536" depart="536.00">
        <route edges="3:1 1:0 0:2 2:8"/>
    </vehicle>
    <vehicle id="538" depart="538.00">
        <route edges="7:3 3:1"/>
    </vehicle>
    <vehicle id="541" depart="541.00">
        <route edges="2:0 0:1 1:5 5:6"/>
    </vehicle>
    <vehicle id="542" depart="542.00">
        <route edges="9:0"/>
    </vehicle>
    <vehicle id="543" depart="543.00">
        <route edges="6:5 5:1"/>
    </vehicle>
    <vehicle id="546" depart="546.00">
        <route edges="6:5 5:1 1:3 3:7"/>
    </vehicle>
    <vehicle id="547" depart="547.00">
        <route edges="8:2 2:0 0:1"/>
    </vehicle>
    <vehicle id="548" depart="548.00">
        <route edges="8:2 2:0 0:1 1:3 3:7"/>
    </vehicle>
    <vehicle id="549" depart="549.00">
        <route edges="9:0 0:2 2:8"/>
    </vehicle>
    <vehicle id="550" depart="550.00">
        <route edges="8:2 2:0"/>
    </vehicle>
    <vehicle id="551" depart="551.00">
        <route edges="7:3 3:1 1:0"/>
    </vehicle>
    <vehicle id="554" depart="554.00">
        <route edges="1:0 0:2"/>
    </vehicle>
    <vehicle id="556" depart="556.00">
        <route edges="5:1 1:0"/>
    </vehicle>
    <vehicle id="558" depart="558.00">
        <route edges="1:3 3:7"/>
    </vehicle>
    <vehicle id="559" depart="559.00">
        <route edges="8:2 2:0 0:1 1:5 5:6"/>
    </vehicle>
    <vehicle id="560" depart="560.00">
        <route edges="1:0 0:2 2:8"/>
    </vehicle>
    <vehicle id="561" depart="561.00">
        <route edges="7:3 3:1"/>
    </vehicle>
    <vehicle id="564" depart="564.00">
        <route edges="7:3 3:1 1:0"/>
    </vehicle>
    <vehicle id="567" depart="567.00">
        <route edges="5:1 1:0 0:9 9:10"/>
    </vehicle>
    <vehicle id="574" depart="574.00">
        <route edges="6:5 5:1 1:3 3:7"/>
    </vehicle>
    <vehicle id="576" depart="576.00">
        <route edges="1:5"/>
    </vehicle>
    <vehicle id="577" depart="577.00">
        <route edges="8:2 2:0 0:1 1:3"/>
    </vehicle>
    <vehicle id="578" depart="578.00">
        <route edges="0:2 2:8"/>
    </vehicle>
    <vehicle id="581" depart="581.00">
        <route edges="3:1 1:5 5:6"/>
    </vehicle>
    <vehicle id="582" depart="582.00">
        <route edges="6:5 5:1 1:3 3:7"/>
    </vehicle>
    <vehicle id="586" depart="586.00">
        <route edges="7:3 3:1 1:0 0:2 2:8"/>
    </vehicle>
    <vehicle id="588" depart="588.00">
        <route edges="6:5 5:1 1:3"/>
    </vehicle>
    <vehicle id="590" depart="590.00">
        <route edges="8:2 2:0"/>
    </vehicle>
    <vehicle id="594" depart="594.00">
        <route edges="7:3 3:1 1:0"/>
    </vehicle>
    <vehicle id="595" depart="595.00">
        <route edges="1:3 3:7"/>
    </vehicle>
    <vehicle id="596" depart="596.00">
        <route edges="7:3 3:1 1:0 0:2 2:8"/>
    </vehicle>
    <vehicle id="597" depart="597.00">
        <route edges="2:0"/>
    </vehicle>
    <vehicle id="600" depart="600.00">
        <route edges="3:1 1:0 0:2 2:8"/>
    </vehicle>
    <vehicle id="602" depart="602.00">
        <route edges="8:2 2:0 0:1 1:3"/>
    </vehicle>
    <vehicle id="603" depart="603.00">
        <route edges="7:3 3:1"/>
    </vehicle>
    <vehicle id="608" depart="608.00">
        <route edges="1:0 0:2 2:8"/>
    </vehicle>
    <vehicle id="611" depart="611.00">
        <route edges="10:9 9:0 0:1 1:3"/>
    </vehicle>
    <vehicle id="612" depart="612.00">
        <route edges="8:2 2:0 0:1 1:3 3:7"/>
    </vehicle>
    <vehicle id="613" depart="613.00">
        <route edges="7:3 3:1 1:0 0:9 9:10"/>
    </vehicle>
    <vehicle id="617" depart="617.00">
        <route edges="10:9 9:0 0:1 1:5 5:6"/>
    </vehicle>
    <vehicle id="618" depart="618.00">
        <route edges="3:1 1:5"/>
    </vehicle>
    <vehicle id="620" depart="620.00">
        <route edges="1:0"/>
    </vehicle>
    <vehicle id="623" depart="623.00">
        <route edges="5:1 1:0 0:9"/>
    </vehicle>
    <vehicle id="624" depart="624.00">
        <route edges="7:3 3:1 1:5 5:6"/>
    </vehicle>
    <vehicle id="625" depart="625.00">
        <route edges="9:0 0:1 1:3 3:7"/>
    </vehicle>
    <vehicle id="627" depart="627.00">
        <route edges="8:2 2:0 0:9 9:10"/>
    </vehicle>
    <vehicle id="630" depart="630.00">
        <route edges="2:0 0:1 1:3 3:7"/>
    </vehicle>
    <vehicle id="634" depart="634.00">
        <route edges="3:1 1:0 0:2"/>
    </vehicle>
    <vehicle id="635" depart="635.00">
        <route edges="1:3"/>
    </vehicle>
    <vehicle id="638" depart="638.00">
        <route edges="7:3 3:1 1:0 0:2 2:8"/>
    </vehicle>
    <vehicle id="639" depart="639.00">
        <route edges="10:9 9:0 0:1 1:3 3:7"/>
    </vehicle>
    <vehicle id="645" depart="645.00">
        <route edges="6:5 5:1 1:3"/>
    </vehicle>
    <vehicle id="646" depart="646.00">
        <route edges="8:2 2:0 0:1 1:3 3:7"/>
    </vehicle>
    <vehicle id="647" depart="647.00">
        <route edges="9:0 0:2"/>
    </vehicle>
    <vehicle id="648" depart="648.00">
        <route edges="5:1 1:3 3:7"/>
    </vehicle>
    <vehicle id="650" depart="650.00">
        <route edges="3:1 1:5"/>
    </vehicle>
    <vehicle id="652" depart="652.00">