<?xml version="1.0" encoding="UTF-8"?>

<!-- generated on Thu Feb 13 14:16:00 2014 by SUMO duarouter Version 0.18.0
<?xml version="1.0" encoding="UTF-8"?>

<configuration xmlns:xsi="http://www.w3.org/2001/XMLSchema-instance" xsi:noNamespaceSchemaLocation="http://sumo.sf.net/xsd/duarouterConfiguration.xsd">

    <input>
        <net-file value="twinT.net.xml"/>
        <trip-files value="experimentos/twinT.p0.4.10.trips.xml"/>
    </input>

    <output>
        <output-file value="experimentos/twinT.p0.4.10.rou.xml"/>
    </output>

    <processing>
        <ignore-errors value="true"/>
    </processing>

    <random_number>
        <random value="true"/>
    </random_number>

</configuration>
-->

<routes xmlns:xsi="http://www.w3.org/2001/XMLSchema-instance" xsi:noNamespaceSchemaLocation="http://sumo.sf.net/xsd/routes_file.xsd">
    <vehicle id="0" depart="0.00">
        <route edges="10:9 9:0"/>
    </vehicle>
    <vehicle id="12" depart="4.80">
        <route edges="7:3 3:1"/>
    </vehicle>
    <vehicle id="13" depart="5.20">
        <route edges="7:3 3:1 1:0"/>
    </vehicle>
    <vehicle id="14" depart="5.60">
        <route edges="8:2 2:0"/>
    </vehicle>
    <vehicle id="15" depart="6.00">
        <route edges="10:9 9:0 0:1 1:3 3:7"/>
    </vehicle>
    <vehicle id="17" depart="6.80">
        <route edges="9:0 0:1"/>
    </vehicle>
    <vehicle id="20" depart="8.00">
        <route edges="2:0 0:9 9:10"/>
    </vehicle>
    <vehicle id="21" depart="8.40">
        <route edges="3:1 1:0 0:9 9:10"/>
    </vehicle>
    <vehicle id="22" depart="8.80">
        <route edges="0:1 1:5"/>
    </vehicle>
    <vehicle id="25" depart="10.00">
        <route edges="7:3 3:1 1:0 0:9"/>
    </vehicle>
    <vehicle id="26" depart="10.40">
        <route edges="10:9 9:0 0:1 1:5 5:6"/>
    </vehicle>
    <vehicle id="28" depart="11.20">
        <route edges="7:3 3:1 1:0 0:9"/>
    </vehicle>
    <vehicle id="30" depart="12.00">
        <route edges="0:2"/>
    </vehicle>
    <vehicle id="32" depart="12.80">
        <route edges="10:9 9:0"/>
    </vehicle>
    <vehicle id="35" depart="14.00">
        <route edges="7:3 3:1 1:0 0:9 9:10"/>
    </vehicle>
    <vehicle id="36" depart="14.40">
        <route edges="8:2 2:0 0:1 1:3"/>
    </vehicle>
    <vehicle id="38" depart="15.20">
        <route edges="8:2 2:0"/>
    </vehicle>
    <vehicle id="39" depart="15.60">
        <route edges="8:2 2:0 0:9 9:10"/>
    </vehicle>
    <vehicle id="42" depart="16.80">
        <route edges="3:1 1:0 0:9 9:10"/>
    </vehicle>
    <vehicle id="44" depart="17.60">
        <route edges="10:9 9:0 0:1 1:3 3:7"/>
    </vehicle>
    <vehicle id="45" depart="18.00">
        <route edges="10:9 9:0 0:2 2:8"/>
    </vehicle>
    <vehicle id="46" depart="18.40">
        <route edges="8:2 2:0 0:1 1:5 5:6"/>
    </vehicle>
    <vehicle id="47" depart="18.80">
        <route edges="0:1 1:5 5:6"/>
    </vehicle>
    <vehicle id="51" depart="20.40">
        <route edges="8:2 2:0 0:1 1:5 5:6"/>
    </vehicle>
    <vehicle id="52" depart="20.80">
        <route edges="6:5 5:1 1:3 3:7"/>
    </vehicle>
    <vehicle id="53" depart="21.20">
        <route edges="1:0 0:2"/>
    </vehicle>
    <vehicle id="54" depart="21.60">
        <route edges="7:3 3:1"/>
    </vehicle>
    <vehicle id="55" depart="22.00">
        <route edges="6:5 5:1 1:3 3:7"/>
    </vehicle>
    <vehicle id="56" depart="22.40">
        <route edges="1:0 0:2"/>
    </vehicle>
    <vehicle id="59" depart="23.60">
        <route edges="8:2 2:0 0:1 1:3 3:7"/>
    </vehicle>
    <vehicle id="60" depart="24.00">
        <route edges="6:5 5:1 1:0 0:9"/>
    </vehicle>
    <vehicle id="62" depart="24.80">
        <route edges="10:9 9:0 0:2 2:8"/>
    </vehicle>
    <vehicle id="63" depart="25.20">
        <route edges="8:2 2:0 0:9 9:10"/>
    </vehicle>
    <vehicle id="64" depart="25.60">
        <route edges="2:0 0:1"/>
    </vehicle>
    <vehicle id="65" depart="26.00">
        <route edges="3:1"/>
    </vehicle>
    <vehicle id="71" depart="28.40">
        <route edges="7:3 3:1 1:5 5:6"/>
    </vehicle>
    <vehicle id="75" depart="30.00">
        <route edges="7:3 3:1 1:0 0:9 9:10"/>
    </vehicle>
    <vehicle id="77" depart="30.80">
        <route edges="6:5 5:1 1:3"/>
    </vehicle>
    <vehicle id="81" depart="32.40">
        <route edges="1:3 3:7"/>
    </vehicle>
    <vehicle id="82" depart="32.80">
        <route edges="7:3 3:1 1:0 0:2"/>
    </vehicle>
    <vehicle id="83" depart="33.20">
        <route edges="8:2 2:0 0:9 9:10"/>
    </vehicle>
    <vehicle id="84" depart="33.60">
        <route edges="5:1 1:0 0:9 9:10"/>
    </vehicle>
    <vehicle id="89" depart="35.60">
        <route edges="7:3 3:1 1:0 0:2 2:8"/>
    </vehicle>
    <vehicle id="91" depart="36.40">
        <route edges="3:1 1:5 5:6"/>
    </vehicle>
    <vehicle id="94" depart="37.60">
        <route edges="3:1 1:0"/>
    </vehicle>
    <vehicle id="96" depart="38.40">
        <route edges="0:9 9:10"/>
    </vehicle>
    <vehicle id="98" depart="39.20">
        <route edges="8:2 2:0 0:1 1:3 3:7"/>
    </vehicle>
    <vehicle id="99" depart="39.60">
        <route edges="2:0"/>
    </vehicle>
    <vehicle id="100" depart="40.00">
        <route edges="8:2 2:0"/>
    </vehicle>
    <vehicle id="101" depart="40.40">
        <route edges="8:2 2:0 0:1 1:3 3:7"/>
    </vehicle>
    <vehicle id="103" depart="41.20">
        <route edges="10:9 9:0 0:1"/>
    </vehicle>
    <vehicle id="105" depart="42.00">
        <route edges="2:0 0:1 1:3"/>
    </vehicle>
    <vehicle id="107" depart="42.80">
        <route edges="6:5 5:1 1:3"/>
    </vehicle>
    <vehicle id="108" depart="43.20">
        <route edges="10:9 9:0 0:2 2:8"/>
    </vehicle>
    <vehicle id="109" depart="43.60">
        <route edges="9:0 0:1 1:3"/>
    </vehicle>
    <vehicle id="110" depart="44.00">
        <route edges="9:0 0:2 2:8"/>
    </vehicle>
    <vehicle id="114" depart="45.60">
        <route edges="8:2 2:0 0:1 1:5"/>
    </vehicle>
    <vehicle id="116" depart="46.40">
        <route edges="6:5 5:1 1:3 3:7"/>
    </vehicle>
    <vehicle id="120" depart="48.00">
        <route edges="7:3 3:1 1:5 5:6"/>
    </vehicle>
    <vehicle id="123" depart="49.20">
        <route edges="0:2 2:8"/>
    </vehicle>
    <vehicle id="124" depart="49.60">
        <route edges="7:3 3:1 1:0 0:9"/>
    </vehicle>
    <vehicle id="127" depart="50.80">
        <route edges="8:2 2:0 0:1 1:3 3:7"/>
    </vehicle>
    <vehicle id="130" depart="52.00">
        <route edges="0:2 2:8"/>
    </vehicle>
    <vehicle id="131" depart="52.40">
        <route edges="8:2 2:0 0:1 1:3"/>
    </vehicle>
    <vehicle id="133" depart="53.20">
        <route edges="5:1 1:3 3:7"/>
    </vehicle>
    <vehicle id="137" depart="54.80">
        <route edges="2:0 0:1 1:5 5:6"/>
    </vehicle>
    <vehicle id="138" depart="55.20">
        <route edges="8:2 2:0 0:1 1:5 5:6"/>
    </vehicle>
    <vehicle id="139" depart="55.60">
        <route edges="10:9 9:0 0:1 1:3"/>
    </vehicle>
    <vehicle id="141" depart="56.40">
        <route edges="7:3 3:1 1:0"/>
    </vehicle>
    <vehicle id="142" depart="56.80">
        <route edges="6:5 5:1 1:0 0:9 9:10"/>
    </vehicle>
    <vehicle id="143" depart="57.20">
        <route edges="8:2 2:0 0:9 9:10"/>
    </vehicle>
    <vehicle id="145" depart="58.00">
        <route edges="3:1 1:0"/>
    </vehicle>
    <vehicle id="148" depart="59.20">
        <route edges="1:0 0:9 9:10"/>
    </vehicle>
    <vehicle id="149" depart="59.60">
        <route edges="7:3 3:1 1:5 5:6"/>
    </vehicle>
    <vehicle id="151" depart="60.40">
        <route edges="7:3 3:1 1:0 0:2 2:8"/>
    </vehicle>
    <vehicle id="152" depart="60.80">
        <route edges="6:5 5:1 1:3 3:7"/>
    </vehicle>
    <vehicle id="153" depart="61.20">
        <route edges="0:1 1:3 3:7"/>
    </vehicle>
    <vehicle id="154" depart="61.60">
        <route edges="0:1 1:3 3:7"/>
    </vehicle>
    <vehicle id="160" depart="64.00">
        <route edges="10:9 9:0 0:2"/>
    </vehicle>
    <vehicle id="161" depart="64.40">
        <route edges="7:3 3:1 1:0 0:2"/>
    </vehicle>
    <vehicle id="165" depart="66.00">
        <route edges="3:1 1:0 0:2"/>
    </vehicle>
    <vehicle id="167" depart="66.80">
        <route edges="1:5"/>
    </vehicle>
    <vehicle id="169" depart="67.60">
        <route edges="0:2"/>
    </vehicle>
    <vehicle id="170" depart="68.00">
        <route edges="0:2 2:8"/>
    </vehicle>
    <vehicle id="171" depart="68.40">
        <route edges="8:2 2:0 0:1 1:3 3:7"/>
    </vehicle>
    <vehicle id="175" depart="70.00">
        <route edges="7:3 3:1 1:5"/>
    </vehicle>
    <vehicle id="177" depart="70.80">
        <route edges="7:3 3:1 1:0 0:2"/>
    </vehicle>
    <vehicle id="178" depart="71.20">
        <route edges="2:0"/>
    </vehicle>
    <vehicle id="191" depart="76.40">
        <route edges="3:1 1:0"/>
    </vehicle>
    <vehicle id="192" depart="76.80">
        <route edges="3:1 1:5 5:6"/>
    </vehicle>
    <vehicle id="195" depart="78.00">
        <route edges="6:5 5:1 1:3 3:7"/>
    </vehicle>
    <vehicle id="196" depart="78.40">
        <route edges="8:2 2:0 0:1 1:3 3:7"/>
    </vehicle>
    <vehicle id="199" depart="79.60">
        <route edges="8:2 2:0 0:1"/>
    </vehicle>
    <vehicle id="200" depart="80.00">
        <route edges="9:0 0:2"/>
    </vehicle>
    <vehicle id="205" depart="82.00">
        <route edges="5:1 1:3 3:7"/>
    </vehicle>
    <vehicle id="207" depart="82.80">
        <route edges="2:0 0:9 9:10"/>
    </vehicle>
    <vehicle id="208" depart="83.20">
        <route edges="7:3 3:1 1:5 5:6"/>
    </vehicle>
    <vehicle id="209" depart="83.60">
        <route edges="3:1 1:5"/>
    </vehicle>
    <vehicle id="210" depart="84.00">
        <route edges="0:2"/>
    </vehicle>
    <vehicle id="211" depart="84.40">
        <route edges="7:3 3:1 1:0 0:2 2:8"/>
    </vehicle>
    <vehicle id="212" depart="84.80">
        <route edges="8:2 2:0 0:1 1:5"/>
    </vehicle>
    <vehicle id="216" depart="86.40">
        <route edges="1:0 0:9"/>
    </vehicle>
    <vehicle id="218" depart="87.20">
        <route edges="8:2 2:0 0:9 9:10"/>
    </vehicle>
    <vehicle id="221" depart="88.40">
        <route edges="7:3 3:1 1:0 0:2 2:8"/>
    </vehicle>
    <vehicle id="225" depart="90.00">
        <route edges="5:1 1:3 3:7"/>
    </vehicle>
    <vehicle id="226" depart="90.40">
        <route edges="7:3 3:1 1:0 0:9"/>
    </vehicle>
    <vehicle id="228" depart="91.20">
        <route edges="9:0 0:2"/>
    </vehicle>
    <vehicle id="229" depart="91.60">
        <route edges="8:2 2:0 0:1 1:5 5:6"/>
    </vehicle>
    <vehicle id="233" depart="93.20">
        <route edges="8:2 2:0 0:1 1:3 3:7"/>
    </vehicle>
    <vehicle id="234" depart="93.60">
        <route edges="8:2 2:0 0:1 1:3 3:7"/>
    </vehicle>
    <vehicle id="235" depart="94.00">
        <route edges="3:1 1:0 0:2"/>
    </vehicle>
    <vehicle id="236" depart="94.40">
        <route edges="7:3 3:1 1:0 0:2 2:8"/>
    </vehicle>
    <vehicle id="237" depart="94.80">
        <route edges="10:9 9:0 0:1 1:3"/>
    </vehicle>
    <vehicle id="238" depart="95.20">
        <route edges="7:3 3:1 1:5"/>
    </vehicle>
    <vehicle id="239" depart="95.60">
        <route edges="2:0 0:1 1:3 3:7"/>
    </vehicle>
    <vehicle id="240" depart="96.00">
        <route edges="8:2 2:0 0:1 1:3"/>
    </vehicle>
    <vehicle id="243" depart="97.20">
        <route edges="6:5 5:1 1:0 0:2"/>
    </vehicle>
    <vehicle id="244" depart="97.60">
        <route edges="8:2 2:0 0:1 1:3 3:7"/>
    </vehicle>
    <vehicle id="245" depart="98.00">
        <route edges="7:3 3:1 1:0 0:2 2:8"/>
    </vehicle>
    <vehicle id="246" depart="98.40">
        <route edges="6:5 5:1 1:0 0:2"/>
    </vehicle>
    <vehicle id="247" depart="98.80">
        <route edges="6:5 5:1 1:3 3:7"/>
    </vehicle>
    <vehicle id="251" depart="100.40">
        <route edges="2:0 0:1 1:5 5:6"/>
    </vehicle>
    <vehicle id="254" depart="101.60">
        <route edges="0:2"/>
    </vehicle>
    <vehicle id="255" depart="102.00">
        <route edges="3:1 1:0 0:2 2:8"/>
    </vehicle>
    <vehicle id="256" depart="102.40">
        <route edges="6:5 5:1 1:0 0:2 2:8"/>
    </vehicle>
    <vehicle id="259" depart="103.60">
        <route edges="7:3 3:1 1:0 0:2 2:8"/>
    </vehicle>
    <vehicle id="262" depart="104.80">
        <route edges="2:0 0:9 9:10"/>
    </vehicle>
    <vehicle id="264" depart="105.60">
        <route edges="7:3 3:1 1:0 0:2 2:8"/>
    </vehicle>
    <vehicle id="265" depart="106.00">
        <route edges="7:3 3:1 1:0 0:2 2:8"/>
    </vehicle>
    <vehicle id="267" depart="106.80">
        <route edges="3:1 1:0 0:2 2:8"/>
    </vehicle>
    <vehicle id="268" depart="107.20">
        <route edges="10:9 9:0 0:2"/>
    </vehicle>
    <vehicle id="270" depart="108.00">
        <route edges="8:2 2:0 0:1 1:3 3:7"/>
    </vehicle>
    <vehicle id="277" depart="110.80">
        <route edges="1:0 0:2 2:8"/>
    </vehicle>
    <vehicle id="278" depart="111.20">
        <route edges="1:3 3:7"/>
    </vehicle>
    <vehicle id="279" depart="111.60">
        <route edges="8:2 2:0 0:1 1:5 5:6"/>
    </vehicle>
    <vehicle id="280" depart="112.00">
        <route edges="2:0 0:9"/>
    </vehicle>
    <vehicle id="283" depart="113.20">
        <route edges="6:5 5:1 1:0 0:9"/>
    </vehicle>
    <vehicle id="284" depart="113.60">
        <route edges="2:0"/>
    </vehicle>
    <vehicle id="285" depart="114.00">
        <route edges="7:3 3:1 1:5 5:6"/>
    </vehicle>
    <vehicle id="286" depart="114.40">
        <route edges="3:1 1:0 0:2 2:8"/>
    </vehicle>
    <vehicle id="288" depart="115.20">
        <route edges="10:9 9:0 0:1"/>
    </vehicle>
    <vehicle id="289" depart="115.60">
        <route edges="7:3 3:1 1:5 5:6"/>
    </vehicle>
    <vehicle id="290" depart="116.00">
        <route edges="10:9 9:0 0:2"/>
    </vehicle>
    <vehicle id="293" depart="117.20">
        <route edges="8:2 2:0 0:1 1:3 3:7"/>
    </vehicle>
    <vehicle id="294" depart="117.60">
        <route edges="2:0 0:1 1:3"/>
    </vehicle>
    <vehicle id="296" depart="118.40">
        <route edges="10:9 9:0 0:2"/>
    </vehicle>
    <vehicle id="298" depart="119.20">
        <route edges="3:1 1:0 0:2 2:8"/>
    </vehicle>
    <vehicle id="300" depart="120.00">
        <route edges="10:9 9:0 0:2"/>
    </vehicle>
    <vehicle id="304" depart="121.60">
        <route edges="0:1 1:3 3:7"/>
    </vehicle>
    <vehicle id="305" depart="122.00">
        <route edges="5:1 1:0 0:2 2:8"/>
    </vehicle>
    <vehicle id="309" depart="123.60">
        <route edges="10:9 9:0 0:2 2:8"/>
    </vehicle>
    <vehicle id="310" depart="124.00">
        <route edges="0:2 2:8"/>
    </vehicle>
    <vehicle id="311" depart="124.40">
        <route edges="10:9 9:0 0:2 2:8"/>
    </vehicle>
    <vehicle id="314" depart="125.60">
        <route edges="2:0 0:1 1:3 3:7"/>
    </vehicle>
    <vehicle id="315" depart="126.00">
        <route edges="1:5"/>
    </vehicle>
    <vehicle id="318" depart="127.20">
        <route edges="5:1 1:0 0:2 2:8"/>
    </vehicle>
    <vehicle id="319" depart="127.60">
        <route edges="8:2 2:0 0:1 1:3 3:7"/>
    </vehicle>
    <vehicle id="323" depart="129.20">
        <route edges="7:3 3:1 1:5 5:6"/>
    </vehicle>
    <vehicle id="325" depart="130.00">
        <route edges="1:3"/>
    </vehicle>
    <vehicle id="328" depart="131.20">
        <route edges="1:0 0:9"/>
    </vehicle>
    <vehicle id="329" depart="131.60">
        <route edges="7:3 3:1 1:5 5:6"/>
    </vehicle>
    <vehicle id="330" depart="132.00">
        <route edges="2:0 0:9 9:10"/>
    </vehicle>
    <vehicle id="331" depart="132.40">
        <route edges="2:0 0:9 9:10"/>
    </vehicle>
    <vehicle id="332" depart="132.80">
        <route edges="7:3 3:1 1:0 0:2"/>
    </vehicle>
    <vehicle id="333" depart="133.20">
        <route edges="7:3 3:1 1:0 0:2 2:8"/>
    </vehicle>
    <vehicle id="334" depart="133.60">
        <route edges="6:5 5:1 1:0 0:2 2:8"/>
    </vehicle>
    <vehicle id="338" depart="135.20">
        <route edges="7:3 3:1 1:0 0:2 2:8"/>
    </vehicle>
    <vehicle id="339" depart="135.60">
        <route edges="8:2 2:0 0:1"/>
    </vehicle>
    <vehicle id="341" depart="136.40">
        <route edges="8:2 2:0 0:1"/>
    </vehicle>
    <vehicle id="342" depart="136.80">
        <route edges="7:3 3:1 1:0 0:2 2:8"/>
    </vehicle>
    <vehicle id="343" depart="137.20">
        <route edges="8:2 2:0"/>
    </vehicle>
    <vehicle id="346" depart="138.40">
        <route edges="2:0"/>
    </vehicle>
    <vehicle id="347" depart="138.80">
        <route edges="5:1"/>
    </vehicle>
    <vehicle id="348" depart="139.20">
        <route edges="10:9 9:0 0:1 1:3 3:7"/>
    </vehicle>
    <vehicle id="354" depart="141.60">
        <route edges="1:3"/>
    </vehicle>
    <vehicle id="356" depart="142.40">
        <route edges="2:0 0:1 1:3 3:7"/>
    </vehicle>
    <vehicle id="357" depart="142.80">
        <route edges="2:0 0:1 1:5 5:6"/>
    </vehicle>
    <vehicle id="358" depart="143.20">
        <route edges="8:2 2:0"/>
    </vehicle>
    <vehicle id="359" depart="143.60">
        <route edges="1:3"/>
    </vehicle>
    <vehicle id="361" depart="144.40">
        <route edges="2:0 0:9 9:10"/>
    </vehicle>
    <vehicle id="363" depart="145.20">
        <route edges="2:0 0:1 1:3 3:7"/>
    </vehicle>
    <vehicle id="364" depart="145.60">
        <route edges="10:9 9:0 0:1 1:5"/>
    </vehicle>
    <vehicle id="365" depart="146.00">
        <route edges="8:2 2:0 0:1 1:3 3:7"/>
    </vehicle>
    <vehicle id="369" depart="147.60">
        <route edges="7:3 3:1 1:0 0:2 2:8"/>
    </vehicle>
    <vehicle id="371" depart="148.40">
        <route edges="7:3 3:1"/>
    </vehicle>
    <vehicle id="372" depart="148.80">
        <route edges="3:1"/>
    </vehicle>
    <vehicle id="373" depart="149.20">
        <route edges="8:2 2:0 0:1 1:3 3:7"/>
    </vehicle>
    <vehicle id="374" depart="149.60">
        <route edges="8:2 2:0 0:9 9:10"/>
    </vehicle>
    <vehicle id="375" depart="150.00">
        <route edges="9:0 0:1 1:3"/>
    </vehicle>
    <vehicle id="379" depart="151.60">
        <route edges="5:1 1:0 0:2"/>
    </vehicle>
    <vehicle id="386" depart="154.40">
        <route edges="1:0 0:2 2:8"/>
    </vehicle>
    <vehicle id="390" depart="156.00">
        <route edges="6:5 5:1 1:0 0:9 9:10"/>
    </vehicle>
    <vehicle id="394" depart="157.60">
        <route edges="10:9 9:0 0:1 1:3"/>
    </vehicle>
    <vehicle id="398" depart="159.20">
        <route edges="1:5 5:6"/>
    </vehicle>
    <vehicle id="399" depart="159.60">
        <route edges="6:5 5:1 1:0 0:2 2:8"/>
    </vehicle>
    <vehicle id="400" depart="160.00">
        <route edges="8:2 2:0 0:1 1:3 3:7"/>
    </vehicle>
    <vehicle id="401" depart="160.40">
        <route edges="5:1 1:0 0:2"/>
    </vehicle>
    <vehicle id="405" depart="162.00">
        <route edges="7:3 3:1"/>
    </vehicle>
    <vehicle id="406" depart="162.40">
        <route edges="10:9 9:0"/>
    </vehicle>
    <vehicle id="407" depart="162.80">
        <route edges="8:2 2:0"/>
    </vehicle>
    <vehicle id="408" depart="163.20">
        <route edges="2:0"/>
    </vehicle>
    <vehicle id="409" depart="163.60">
        <route edges="7:3 3:1 1:0 0:2 2:8"/>
    </vehicle>
    <vehicle id="411" depart="164.40">
        <route edges="10:9 9:0 0:1 1:3 3:7"/>
    </vehicle>
    <vehicle id="416" depart="166.40">
        <route edges="10:9 9:0 0:1 1:5 5:6"/>
    </vehicle>
    <vehicle id="417" depart="166.80">
        <route edges="10:9 9:0"/>
    </vehicle>
    <vehicle id="418" depart="167.20">
        <route edges="8:2 2:0 0:1 1:5 5:6"/>
    </vehicle>
    <vehicle id="422" depart="168.80">
        <route edges="10:9 9:0 0:1 1:3 3:7"/>
    </vehicle>
    <vehicle id="425" depart="170.00">
        <route edges="6:5 5:1 1:3"/>
    </vehicle>
    <vehicle id="429" depart="171.60">
        <route edges="7:3 3:1 1:0"/>
    </vehicle>
    <vehicle id="430" depart="172.00">
        <route edges="10:9 9:0 0:1 1:3 3:7"/>
    </vehicle>
    <vehicle id="437" depart="174.80">
        <route edges="7:3 3:1 1:0"/>
    </vehicle>
    <vehicle id="438" depart="175.20">
        <route edges="3:1 1:5 5:6"/>
    </vehicle>
    <vehicle id="440" depart="176.00">
        <route edges="7:3 3:1 1:0 0:2"/>
    </vehicle>
    <vehicle id="441" depart="176.40">
        <route edges="7:3 3:1 1:0 0:2 2:8"/>
    </vehicle>
    <vehicle id="443" depart="177.20">
        <route edges="5:1"/>
    </vehicle>
    <vehicle id="445" depart="178.00">
        <route edges="3:1"/>
    </vehicle>
    <vehicle id="446" depart="178.40">
        <route edges="1:3 3:7"/>
    </vehicle>
    <vehicle id="450" depart="180.00">
        <route edges="6:5 5:1 1:0 0:2 2:8"/>
    </vehicle>
    <vehicle id="452" depart="180.80">
        <route edges="3:1 1:0 0:2 2:8"/>
    </vehicle>
    <vehicle id="454" depart="181.60">
        <route edges="2:0"/>
    </vehicle>
    <vehicle id="455" depart="182.00">
        <route edges="7:3 3:1 1:0 0:2 2:8"/>
    </vehicle>
    <vehicle id="458" depart="183.20">
        <route edges="1:0 0:9 9:10"/>
    </vehicle>
    <vehicle id="459" depart="183.60">
        <route edges="0:2 2:8"/>
    </vehicle>
    <vehicle id="465" depart="186.00">
        <route edges="8:2 2:0 0:1 1:3 3:7"/>
    </vehicle>
    <vehicle id="469" depart="187.60">
        <route edges="10:9 9:0 0:1 1:3 3:7"/>
    </vehicle>
    <vehicle id="470" depart="188.00">
        <route edges="6:5 5:1 1:0"/>
    </vehicle>
    <vehicle id="472" depart="188.80">
        <route edges="1:5 5:6"/>
    </vehicle>
    <vehicle id="474" depart="189.60">
        <route edges="6:5 5:1 1:0 0:2 2:8"/>
    </vehicle>
    <vehicle id="475" depart="190.00">
        <route edges="7:3 3:1 1:0 0:2 2:8"/>
    </vehicle>
    <vehicle id="477" depart="190.80">
        <route edges="0:2 2:8"/>
    </vehicle>
    <vehicle id="478" depart="191.20">
        <route edges="8:2 2:0 0:1 1:3 3:7"/>
    </vehicle>
    <vehicle id="483" depart="193.20">
        <route edges="7:3 3:1 1:0 0:9 9:10"/>
    </vehicle>
    <vehicle id="484" depart="193.60">
        <route edges="8:2 2:0 0:1 1:5 5:6"/>
    </vehicle>
    <vehicle id="486" depart="194.40">
        <route edges="8:2 2:0 0:1 1:3 3:7"/>
    </vehicle>
    <vehicle id="491" depart="196.40">
        <route edges="10:9 9:0 0:1 1:3 3:7"/>
    </vehicle>
    <vehicle id="493" depart="197.20">
        <route edges="10:9 9:0 0:1 1:3 3:7"/>
    </vehicle>
    <vehicle id="494" depart="197.60">
        <route edges="8:2 2:0 0:1 1:3"/>
    </vehicle>
    <vehicle id="495" depart="198.00">
        <route edges="7:3 3:1 1:0 0:9 9:10"/>
    </vehicle>
    <vehicle id="496" depart="198.40">
        <route edges="7:3 3:1 1:0"/>
    </vehicle>
    <vehicle id="499" depart="199.60">
        <route edges="2:0 0:9 9:10"/>
    </vehicle>
    <vehicle id="501" depart="200.40">
        <route edges="6:5 5:1 1:3"/>
    </vehicle>
    <vehicle id="502" depart="200.80">
        <route edges="8:2 2:0 0:9"/>
    </vehicle>
    <vehicle id="503" depart="201.20">
        <route edges="2:0 0:1 1:3 3:7"/>
    </vehicle>
    <vehicle id="504" depart="201.60">
        <route edges="7:3 3:1 1:0 0:2 2:8"/>
    </vehicle>
    <vehicle id="506" depart="202.40">
        <route edges="9:0 0:1"/>
    </vehicle>
    <vehicle id="507" depart="202.80">
        <route edges="7:3 3:1"/>
    </vehicle>
    <vehicle id="510" depart="204.00">
        <route edges="7:3 3:1 1:0 0:2 2:8"/>
    </vehicle>
    <vehicle id="511" depart="204.40">
        <route edges="3:1 1:0 0:9"/>
    </vehicle>
    <vehicle id="513" depart="205.20">
        <route edges="7:3 3:1 1:0 0:2 2:8"/>
    </vehicle>
    <vehicle id="515" depart="206.00">
        <route edges="3:1"/>
    </vehicle>
    <vehicle id="516" depart="206.40">
        <route edges="7:3 3:1 1:5"/>
    </vehicle>
    <vehicle id="519" depart="207.60">
        <route edges="6:5 5:1 1:0 0:2 2:8"/>
    </vehicle>
    <vehicle id="520" depart="208.00">
        <route edges="7:3 3:1 1:0 0:9 9:10"/>
    </vehicle>
    <vehicle id="521" depart="208.40">
        <route edges="7:3 3:1"/>
    </vehicle>
    <vehicle id="523" depart="209.20">
        <route edges="0:1 1:3 3:7"/>
    </vehicle>
    <vehicle id="526" depart="210.40">
        <route edges="2:0 0:1 1:5"/>
    </vehicle>
    <vehicle id="530" depart="212.00">
        <route edges="0:2"/>
    </vehicle>
    <vehicle id="534" depart="213.60">
        <route edges="7:3 3:1"/>
    </vehicle>
    <vehicle id="535" depart="214.00">
        <route edges="7:3 3:1 1:0 0:9 9:10"/>
    </vehicle>
    <vehicle id="538" depart="215.20">
        <route edges="7:3 3:1 1:0 0:2"/>
    </vehicle>
    <vehicle id="539" depart="215.60">
        <route edges="6:5 5:1 1:0 0:9 9:10"/>
    </vehicle>
    <vehicle id="540" depart="216.00">
        <route edges="7:3 3:1"/>
    </vehicle>
    <vehicle id="541" depart="216.40">
        <route edges="6:5 5:1 1:3 3:7"/>
    </vehicle>
    <vehicle id="546" depart="218.40">
        <route edges="6:5 5:1 1:0 0:2"/>
    </vehicle>
    <vehicle id="548" depart="219.20">
        <route edges="6:5 5:1 1:3"/>
    </vehicle>
    <vehicle id="549" depart="219.60">
        <route edges="8:2 2:0 0:1 1:3"/>
    </vehicle>
    <vehicle id="550" depart="220.00">
        <route edges="3:1 1:5 5:6"/>
    </vehicle>
    <vehicle id="551" depart="220.40">
        <route edges="2:0 0:1 1:3 3:7"/>
    </vehicle>
    <vehicle id="555" depart="222.00">
        <route edges="8:2 2:0"/>
    </vehicle>
    <vehicle id="556" depart="222.40">
        <route edges="10:9 9:0 0:1 1:3"/>
    </vehicle>
    <vehicle id="557" depart="222.80">
        <route edges="10:9 9:0 0:2 2:8"/>
    </vehicle>
    <vehicle id="558" depart="223.20">
        <route edges="1:5 5:6"/>
    </vehicle>
    <vehicle id="559" depart="223.60">
        <route edges="8:2 2:0"/>
    </vehicle>
    <vehicle id="565" depart="226.00">
        <route edges="8:2 2:0 0:1 1:5 5:6"/>
    </vehicle>
    <vehicle id="569" depart="227.60">
        <route edges="6:5 5:1 1:0 0:2 2:8"/>
    </vehicle>
    <vehicle id="572" depart="228.80">
        <route edges="2:0 0:1 1:3 3:7"/>
    </vehicle>
    <vehicle id="573" depart="229.20">
        <route edges="2:0 0:1"/>
    </vehicle>
    <vehicle id="574" depart="229.60">
        <route edges="2:0 0:9 9:10"/>
    </vehicle>
    <vehicle id="575" depart="230.00">
        <route edges="9:0 0:2 2:8"/>
    </vehicle>
    <vehicle id="577" depart="230.80">
        <route edges="0:2 2:8"/>
    </vehicle>
    <vehicle id="578" depart="231.20">
        <route edges="2:0 0:9 9:10"/>
    </vehicle>
    <vehicle id="580" depart="232.00">
        <route edges="1:3"/>
    </vehicle>
    <vehicle id="582" depart="232.80">
        <route edges="2:0"/>
    </vehicle>
    <vehicle id="583" depart="233.20">
        <route edges="0:2 2:8"/>
    </vehicle>
    <vehicle id="584" depart="233.60">
        <route edges="0:2 2:8"/>
    </vehicle>
    <vehicle id="586" depart="234.40">
        <route edges="6:5 5:1 1:3"/>
    </vehicle>
    <vehicle id="587" depart="234.80">
        <route edges="7:3 3:1"/>
    </vehicle>
    <vehicle id="588" depart="235.20">
        <route edges="7:3 3:1 1:0 0:2 2:8"/>
    </vehicle>
    <vehicle id="590" depart="236.00">
        <route edges="7:3 3:1 1:0 0:2 2:8"/>
    </vehicle>
    <vehicle id="593" depart="237.20">
        <route edges="8:2 2:0 0:1 1:5 5:6"/>
    </vehicle>
    <vehicle id="594" depart="237.60">
        <route edges="7:3 3:1 1:0 0:2 2:8"/>
    </vehicle>
    <vehicle id="597" depart="238.80">
        <route edges="10:9 9:0 0:1 1:3"/>
    </vehicle>
    <vehicle id="598" depart="239.20">
        <route edges="10:9 9:0 0:2"/>
    </vehicle>
    <vehicle id="599" depart="239.60">
        <route edges="6:5 5:1 1:0 0:2 2:8"/>
    </vehicle>
    <vehicle id="600" depart="240.00">
        <route edges="7:3 3:1 1:0"/>
    </vehicle>
    <vehicle id="601" depart="240.40">
        <route edges="7:3 3:1 1:0 0:2"/>
    </vehicle>
    <vehicle id="603" depart="241.20">
        <route edges="5:1 1:0"/>
    </vehicle>
    <vehicle id="606" depart="242.40">
        <route edges="8:2 2:0 0:1 1:5 5:6"/>
    </vehicle>
    <vehicle id="607" depart="242.80">
        <route edges="7:3 3:1 1:0 0:9"/>
    </vehicle>
    <vehicle id="608" depart="243.20">
        <route edges="8:2 2:0 0:9"/>
    </vehicle>
    <vehicle id="610" depart="244.00">
        <route edges="7:3 3:1 1:0 0:2 2:8"/>
    </vehicle>
    <vehicle id="616" depart="246.40">
        <route edges="2:0 0:1"/>
    </vehicle>
    <vehicle id="618" depart="247.20">
        <route edges="7:3 3:1 1:5 5:6"/>
    </vehicle>
    <vehicle id="619" depart="247.60">
        <route edges="7:3 3:1 1:5 5:6"/>
    </vehicle>
    <vehicle id="621" depart="248.40">
        <route edges="0:2 2:8"/>
    </vehicle>
    <vehicle id="622" depart="248.80">
        <route edges="2:0"/>
    </vehicle>
    <vehicle id="624" depart="249.60">
        <route edges="3:1 1:0 0:2"/>
    </vehicle>
    <vehicle id="627" depart="250.80">
        <route edges="2:0 0:1 1:3"/>
    </vehicle>
    <vehicle id="628" depart="251.20">
        <route edges="2:0 0:1 1:3"/>
    </vehicle>
    <vehicle id="630" depart="252.00">
        <route edges="8:2 2:0 0:1 1:3 3:7"/>
    </vehicle>
    <vehicle id="631" depart="252.40">
        <route edges="1:3 3:7"/>
    </vehicle>
    <vehicle id="636" depart="254.40">
        <route edges="9:0 0:2 2:8"/>
    </vehicle>
    <vehicle id="638" depart="255.20">
        <route edges="8:2 2:0 0:1 1:3 3:7"/>
    </vehicle>
    <vehicle id="639" depart="255.60">
        <route edges="8:2 2:0 0:1 1:5 5:6"/>
    </vehicle>
    <vehicle id="640" depart="256.00">
        <route edges="7:3 3:1 1:0 0:2 2:8"/>
    </vehicle>
    <vehicle id="642" depart="256.80">