<?xml version="1.0" encoding="UTF-8"?>

<!-- generated on Thu Feb 13 14:15:44 2014 by SUMO duarouter Version 0.18.0
<?xml version="1.0" encoding="UTF-8"?>

<configuration xmlns:xsi="http://www.w3.org/2001/XMLSchema-instance" xsi:noNamespaceSchemaLocation="http://sumo.sf.net/xsd/duarouterConfiguration.xsd">

    <input>
        <net-file value="twinT.net.xml"/>
        <trip-files value="experimentos/twinT.p0.4.5.trips.xml"/>
    </input>

    <output>
        <output-file value="experimentos/twinT.p0.4.5.rou.xml"/>
    </output>

    <processing>
        <ignore-errors value="true"/>
    </processing>

    <random_number>
        <random value="true"/>
    </random_number>

</configuration>
-->

<routes xmlns:xsi="http://www.w3.org/2001/XMLSchema-instance" xsi:noNamespaceSchemaLocation="http://sumo.sf.net/xsd/routes_file.xsd">
    <vehicle id="0" depart="0.00">
        <route edges="8:2 2:0 0:1 1:5 5:6"/>
    </vehicle>
    <vehicle id="1" depart="0.40">
        <route edges="8:2 2:0 0:1 1:3 3:7"/>
    </vehicle>
    <vehicle id="3" depart="1.20">
        <route edges="3:1 1:0 0:2"/>
    </vehicle>
    <vehicle id="4" depart="1.60">
        <route edges="7:3 3:1 1:0 0:9"/>
    </vehicle>
    <vehicle id="7" depart="2.80">
        <route edges="3:1 1:0"/>
    </vehicle>
    <vehicle id="8" depart="3.20">
        <route edges="10:9 9:0 0:1 1:3 3:7"/>
    </vehicle>
    <vehicle id="9" depart="3.60">
        <route edges="7:3 3:1 1:0 0:9 9:10"/>
    </vehicle>
    <vehicle id="13" depart="5.20">
        <route edges="5:1 1:0 0:2 2:8"/>
    </vehicle>
    <vehicle id="16" depart="6.40">
        <route edges="2:0"/>
    </vehicle>
    <vehicle id="20" depart="8.00">
        <route edges="8:2 2:0 0:1 1:3"/>
    </vehicle>
    <vehicle id="21" depart="8.40">
        <route edges="8:2 2:0 0:1 1:5"/>
    </vehicle>
    <vehicle id="22" depart="8.80">
        <route edges="9:0 0:2"/>
    </vehicle>
    <vehicle id="23" depart="9.20">
        <route edges="3:1 1:0 0:2"/>
    </vehicle>
    <vehicle id="25" depart="10.00">
        <route edges="10:9 9:0 0:1 1:3 3:7"/>
    </vehicle>
    <vehicle id="26" depart="10.40">
        <route edges="7:3 3:1 1:0 0:2 2:8"/>
    </vehicle>
    <vehicle id="27" depart="10.80">
        <route edges="7:3 3:1 1:0 0:2 2:8"/>
    </vehicle>
    <vehicle id="30" depart="12.00">
        <route edges="6:5 5:1 1:0 0:9 9:10"/>
    </vehicle>
    <vehicle id="32" depart="12.80">
        <route edges="7:3 3:1"/>
    </vehicle>
    <vehicle id="33" depart="13.20">
        <route edges="2:0 0:9 9:10"/>
    </vehicle>
    <vehicle id="34" depart="13.60">
        <route edges="6:5 5:1 1:0 0:2 2:8"/>
    </vehicle>
    <vehicle id="35" depart="14.00">
        <route edges="1:3 3:7"/>
    </vehicle>
    <vehicle id="38" depart="15.20">
        <route edges="8:2 2:0 0:1 1:5 5:6"/>
    </vehicle>
    <vehicle id="40" depart="16.00">
        <route edges="0:9 9:10"/>
    </vehicle>
    <vehicle id="41" depart="16.40">
        <route edges="10:9 9:0 0:1 1:5"/>
    </vehicle>
    <vehicle id="43" depart="17.20">
        <route edges="5:1 1:0 0:2 2:8"/>
    </vehicle>
    <vehicle id="44" depart="17.60">
        <route edges="1:0 0:9 9:10"/>
    </vehicle>
    <vehicle id="45" depart="18.00">
        <route edges="7:3 3:1 1:0 0:9"/>
    </vehicle>
    <vehicle id="46" depart="18.40">
        <route edges="7:3 3:1 1:5 5:6"/>
    </vehicle>
    <vehicle id="48" depart="19.20">
        <route edges="7:3 3:1 1:0 0:2 2:8"/>
    </vehicle>
    <vehicle id="51" depart="20.40">
        <route edges="0:1 1:3 3:7"/>
    </vehicle>
    <vehicle id="52" depart="20.80">
        <route edges="7:3 3:1 1:0 0:2 2:8"/>
    </vehicle>
    <vehicle id="54" depart="21.60">
        <route edges="0:2 2:8"/>
    </vehicle>
    <vehicle id="55" depart="22.00">
        <route edges="0:1"/>
    </vehicle>
    <vehicle id="56" depart="22.40">
        <route edges="3:1 1:0"/>
    </vehicle>
    <vehicle id="57" depart="22.80">
        <route edges="2:0 0:1 1:3"/>
    </vehicle>
    <vehicle id="58" depart="23.20">
        <route edges="8:2 2:0 0:1 1:3"/>
    </vehicle>
    <vehicle id="66" depart="26.40">
        <route edges="8:2 2:0 0:1 1:5 5:6"/>
    </vehicle>
    <vehicle id="68" depart="27.20">
        <route edges="9:0 0:1 1:3 3:7"/>
    </vehicle>
    <vehicle id="69" depart="27.60">
        <route edges="9:0 0:1 1:5 5:6"/>
    </vehicle>
    <vehicle id="73" depart="29.20">
        <route edges="8:2 2:0 0:1 1:3 3:7"/>
    </vehicle>
    <vehicle id="75" depart="30.00">
        <route edges="3:1 1:5 5:6"/>
    </vehicle>
    <vehicle id="76" depart="30.40">
        <route edges="7:3 3:1"/>
    </vehicle>
    <vehicle id="77" depart="30.80">
        <route edges="5:1 1:3 3:7"/>
    </vehicle>
    <vehicle id="83" depart="33.20">
        <route edges="6:5 5:1 1:0 0:9 9:10"/>
    </vehicle>
    <vehicle id="86" depart="34.40">
        <route edges="8:2 2:0 0:1 1:3"/>
    </vehicle>
    <vehicle id="87" depart="34.80">
        <route edges="8:2 2:0 0:1 1:3 3:7"/>
    </vehicle>
    <vehicle id="88" depart="35.20">
        <route edges="3:1 1:0 0:2 2:8"/>
    </vehicle>
    <vehicle id="89" depart="35.60">
        <route edges="10:9 9:0 0:1 1:5 5:6"/>
    </vehicle>
    <vehicle id="91" depart="36.40">
        <route edges="8:2 2:0 0:1"/>
    </vehicle>
    <vehicle id="96" depart="38.40">
        <route edges="6:5 5:1 1:3"/>
    </vehicle>
    <vehicle id="98" depart="39.20">
        <route edges="0:1 1:5 5:6"/>
    </vehicle>
    <vehicle id="99" depart="39.60">
        <route edges="9:0 0:1 1:3"/>
    </vehicle>
    <vehicle id="101" depart="40.40">
        <route edges="7:3 3:1 1:0 0:2 2:8"/>
    </vehicle>
    <vehicle id="103" depart="41.20">
        <route edges="9:0 0:1 1:3"/>
    </vehicle>
    <vehicle id="104" depart="41.60">
        <route edges="3:1 1:0 0:2"/>
    </vehicle>
    <vehicle id="105" depart="42.00">
        <route edges="3:1 1:5"/>
    </vehicle>
    <vehicle id="107" depart="42.80">
        <route edges="3:1 1:5 5:6"/>
    </vehicle>
    <vehicle id="108" depart="43.20">
        <route edges="8:2 2:0 0:1 1:3 3:7"/>
    </vehicle>
    <vehicle id="109" depart="43.60">
        <route edges="2:0 0:9 9:10"/>
    </vehicle>
    <vehicle id="111" depart="44.40">
        <route edges="8:2 2:0 0:1 1:3 3:7"/>
    </vehicle>
    <vehicle id="112" depart="44.80">
        <route edges="0:2 2:8"/>
    </vehicle>
    <vehicle id="118" depart="47.20">
        <route edges="2:0 0:1 1:3 3:7"/>
    </vehicle>
    <vehicle id="119" depart="47.60">
        <route edges="6:5 5:1 1:0"/>
    </vehicle>
    <vehicle id="120" depart="48.00">
        <route edges="10:9 9:0 0:2 2:8"/>
    </vehicle>
    <vehicle id="125" depart="50.00">
        <route edges="8:2 2:0"/>
    </vehicle>
    <vehicle id="128" depart="51.20">
        <route edges="7:3 3:1 1:0 0:9"/>
    </vehicle>
    <vehicle id="130" depart="52.00">
        <route edges="6:5 5:1 1:0 0:2"/>
    </vehicle>
    <vehicle id="137" depart="54.80">
        <route edges="7:3 3:1 1:0 0:9 9:10"/>
    </vehicle>
    <vehicle id="138" depart="55.20">
        <route edges="8:2 2:0 0:1 1:3 3:7"/>
    </vehicle>
    <vehicle id="140" depart="56.00">
        <route edges="7:3 3:1 1:0 0:9 9:10"/>
    </vehicle>
    <vehicle id="142" depart="56.80">
        <route edges="8:2 2:0 0:1 1:5 5:6"/>
    </vehicle>
    <vehicle id="145" depart="58.00">
        <route edges="10:9 9:0 0:1 1:5 5:6"/>
    </vehicle>
    <vehicle id="146" depart="58.40">
        <route edges="7:3 3:1 1:0 0:2 2:8"/>
    </vehicle>
    <vehicle id="149" depart="59.60">
        <route edges="2:0 0:1 1:3 3:7"/>
    </vehicle>
    <vehicle id="151" depart="60.40">
        <route edges="10:9 9:0 0:2 2:8"/>
    </vehicle>
    <vehicle id="154" depart="61.60">
        <route edges="6:5 5:1 1:0 0:2"/>
    </vehicle>
    <vehicle id="155" depart="62.00">
        <route edges="8:2 2:0 0:1 1:3 3:7"/>
    </vehicle>
    <vehicle id="161" depart="64.40">
        <route edges="7:3 3:1 1:0 0:2 2:8"/>
    </vehicle>
    <vehicle id="164" depart="65.60">
        <route edges="0:2 2:8"/>
    </vehicle>
    <vehicle id="166" depart="66.40">
        <route edges="8:2 2:0 0:1 1:5 5:6"/>
    </vehicle>
    <vehicle id="172" depart="68.80">
        <route edges="3:1 1:0"/>
    </vehicle>
    <vehicle id="175" depart="70.00">
        <route edges="9:0 0:2 2:8"/>
    </vehicle>
    <vehicle id="176" depart="70.40">
        <route edges="10:9 9:0 0:1 1:3 3:7"/>
    </vehicle>
    <vehicle id="178" depart="71.20">
        <route edges="8:2 2:0 0:9 9:10"/>
    </vehicle>
    <vehicle id="179" depart="71.60">
        <route edges="3:1 1:0 0:2"/>
    </vehicle>
    <vehicle id="180" depart="72.00">
        <route edges="7:3 3:1"/>
    </vehicle>
    <vehicle id="182" depart="72.80">
        <route edges="2:0 0:1 1:3 3:7"/>
    </vehicle>
    <vehicle id="185" depart="74.00">
        <route edges="0:9 9:10"/>
    </vehicle>
    <vehicle id="186" depart="74.40">
        <route edges="0:2"/>
    </vehicle>
    <vehicle id="190" depart="76.00">
        <route edges="1:3 3:7"/>
    </vehicle>
    <vehicle id="191" depart="76.40">
        <route edges="10:9 9:0 0:1 1:3 3:7"/>
    </vehicle>
    <vehicle id="193" depart="77.20">
        <route edges="9:0 0:2 2:8"/>
    </vehicle>
    <vehicle id="194" depart="77.60">
        <route edges="7:3 3:1 1:0 0:2"/>
    </vehicle>
    <vehicle id="200" depart="80.00">
        <route edges="7:3 3:1"/>
    </vehicle>
    <vehicle id="202" depart="80.80">
        <route edges="7:3 3:1 1:0 0:9 9:10"/>
    </vehicle>
    <vehicle id="204" depart="81.60">
        <route edges="7:3 3:1 1:5 5:6"/>
    </vehicle>
    <vehicle id="206" depart="82.40">
        <route edges="6:5 5:1 1:0 0:9 9:10"/>
    </vehicle>
    <vehicle id="207" depart="82.80">
        <route edges="10:9 9:0 0:2 2:8"/>
    </vehicle>
    <vehicle id="208" depart="83.20">
        <route edges="5:1 1:3"/>
    </vehicle>
    <vehicle id="209" depart="83.60">
        <route edges="7:3 3:1 1:0 0:2"/>
    </vehicle>
    <vehicle id="210" depart="84.00">
        <route edges="8:2 2:0 0:9 9:10"/>
    </vehicle>
    <vehicle id="211" depart="84.40">
        <route edges="10:9 9:0 0:1 1:5 5:6"/>
    </vehicle>
    <vehicle id="214" depart="85.60">
        <route edges="5:1 1:0 0:2 2:8"/>
    </vehicle>
    <vehicle id="215" depart="86.00">
        <route edges="7:3 3:1 1:0 0:2"/>
    </vehicle>
    <vehicle id="216" depart="86.40">
        <route edges="2:0 0:1 1:3 3:7"/>
    </vehicle>
    <vehicle id="217" depart="86.80">
        <route edges="7:3 3:1"/>
    </vehicle>
    <vehicle id="218" depart="87.20">
        <route edges="6:5 5:1 1:3 3:7"/>
    </vehicle>
    <vehicle id="223" depart="89.20">
        <route edges="3:1 1:0 0:2 2:8"/>
    </vehicle>
    <vehicle id="224" depart="89.60">
        <route edges="0:1 1:3 3:7"/>
    </vehicle>
    <vehicle id="225" depart="90.00">
        <route edges="8:2 2:0 0:9 9:10"/>
    </vehicle>
    <vehicle id="226" depart="90.40">
        <route edges="0:2"/>
    </vehicle>
    <vehicle id="229" depart="91.60">
        <route edges="0:1 1:5 5:6"/>
    </vehicle>
    <vehicle id="231" depart="92.40">
        <route edges="6:5 5:1 1:0 0:2 2:8"/>
    </vehicle>
    <vehicle id="238" depart="95.20">
        <route edges="10:9 9:0 0:1 1:3 3:7"/>
    </vehicle>
    <vehicle id="240" depart="96.00">
        <route edges="7:3 3:1 1:0 0:2"/>
    </vehicle>
    <vehicle id="243" depart="97.20">
        <route edges="1:5 5:6"/>
    </vehicle>
    <vehicle id="245" depart="98.00">
        <route edges="0:1 1:5"/>
    </vehicle>
    <vehicle id="254" depart="101.60">
        <route edges="2:0 0:1 1:5 5:6"/>
    </vehicle>
    <vehicle id="255" depart="102.00">
        <route edges="8:2 2:0 0:9 9:10"/>
    </vehicle>
    <vehicle id="260" depart="104.00">
        <route edges="0:2"/>
    </vehicle>
    <vehicle id="261" depart="104.40">
        <route edges="1:0 0:9 9:10"/>
    </vehicle>
    <vehicle id="263" depart="105.20">
        <route edges="5:1 1:3"/>
    </vehicle>
    <vehicle id="266" depart="106.40">
        <route edges="7:3 3:1 1:5"/>
    </vehicle>
    <vehicle id="267" depart="106.80">
        <route edges="3:1 1:5 5:6"/>
    </vehicle>
    <vehicle id="268" depart="107.20">
        <route edges="8:2 2:0 0:1 1:3"/>
    </vehicle>
    <vehicle id="269" depart="107.60">
        <route edges="9:0 0:2"/>
    </vehicle>
    <vehicle id="272" depart="108.80">
        <route edges="6:5 5:1 1:3 3:7"/>
    </vehicle>
    <vehicle id="275" depart="110.00">
        <route edges="1:3 3:7"/>
    </vehicle>
    <vehicle id="276" depart="110.40">
        <route edges="7:3 3:1 1:0 0:9 9:10"/>
    </vehicle>
    <vehicle id="277" depart="110.80">
        <route edges="6:5 5:1 1:0 0:2 2:8"/>
    </vehicle>
    <vehicle id="279" depart="111.60">
        <route edges="6:5 5:1 1:0 0:9"/>
    </vehicle>
    <vehicle id="280" depart="112.00">
        <route edges="2:0 0:1 1:5"/>
    </vehicle>
    <vehicle id="281" depart="112.40">
        <route edges="0:2 2:8"/>
    </vehicle>
    <vehicle id="282" depart="112.80">
        <route edges="0:1 1:3 3:7"/>
    </vehicle>
    <vehicle id="284" depart="113.60">
        <route edges="7:3 3:1 1:0 0:2"/>
    </vehicle>
    <vehicle id="286" depart="114.40">
        <route edges="0:9"/>
    </vehicle>
    <vehicle id="287" depart="114.80">
        <route edges="3:1"/>
    </vehicle>
    <vehicle id="289" depart="115.60">
        <route edges="7:3 3:1 1:5 5:6"/>
    </vehicle>
    <vehicle id="290" depart="116.00">
        <route edges="8:2 2:0"/>
    </vehicle>
    <vehicle id="291" depart="116.40">
        <route edges="7:3 3:1 1:0 0:9"/>
    </vehicle>
    <vehicle id="293" depart="117.20">
        <route edges="3:1 1:0 0:2 2:8"/>
    </vehicle>
    <vehicle id="296" depart="118.40">
        <route edges="7:3 3:1 1:0 0:2"/>
    </vehicle>
    <vehicle id="299" depart="119.60">
        <route edges="2:0 0:1 1:5"/>
    </vehicle>
    <vehicle id="300" depart="120.00">
        <route edges="10:9 9:0 0:1 1:5"/>
    </vehicle>
    <vehicle id="301" depart="120.40">
        <route edges="7:3 3:1 1:0 0:2 2:8"/>
    </vehicle>
    <vehicle id="302" depart="120.80">
        <route edges="8:2 2:0 0:1"/>
    </vehicle>
    <vehicle id="304" depart="121.60">
        <route edges="6:5 5:1 1:0 0:9 9:10"/>
    </vehicle>
    <vehicle id="307" depart="122.80">
        <route edges="3:1 1:0 0:9 9:10"/>
    </vehicle>
    <vehicle id="311" depart="124.40">
        <route edges="8:2 2:0 0:1 1:3"/>
    </vehicle>
    <vehicle id="312" depart="124.80">
        <route edges="1:3 3:7"/>
    </vehicle>
    <vehicle id="313" depart="125.20">
        <route edges="8:2 2:0 0:9"/>
    </vehicle>
    <vehicle id="314" depart="125.60">
        <route edges="7:3 3:1 1:0"/>
    </vehicle>
    <vehicle id="316" depart="126.40">
        <route edges="1:3"/>
    </vehicle>
    <vehicle id="317" depart="126.80">
        <route edges="6:5 5:1 1:0 0:2 2:8"/>
    </vehicle>
    <vehicle id="320" depart="128.00">
        <route edges="9:0 0:1 1:3"/>
    </vehicle>
    <vehicle id="321" depart="128.40">
        <route edges="7:3 3:1 1:0 0:9 9:10"/>
    </vehicle>
    <vehicle id="323" depart="129.20">
        <route edges="3:1 1:0 0:2"/>
    </vehicle>
    <vehicle id="326" depart="130.40">
        <route edges="2:0 0:1 1:5"/>
    </vehicle>
    <vehicle id="327" depart="130.80">
        <route edges="7:3 3:1 1:0 0:9 9:10"/>
    </vehicle>
    <vehicle id="329" depart="131.60">
        <route edges="3:1 1:0 0:2 2:8"/>
    </vehicle>
    <vehicle id="330" depart="132.00">
        <route edges="8:2 2:0 0:1 1:3 3:7"/>
    </vehicle>
    <vehicle id="333" depart="133.20">
        <route edges="3:1"/>
    </vehicle>
    <vehicle id="335" depart="134.00">
        <route edges="3:1 1:0 0:9"/>
    </vehicle>
    <vehicle id="337" depart="134.80">
        <route edges="9:0 0:1 1:3"/>
    </vehicle>
    <vehicle id="340" depart="136.00">
        <route edges="8:2 2:0"/>
    </vehicle>
    <vehicle id="341" depart="136.40">
        <route edges="3:1 1:0 0:2 2:8"/>
    </vehicle>
    <vehicle id="342" depart="136.80">
        <route edges="9:0 0:1 1:3"/>
    </vehicle>
    <vehicle id="345" depart="138.00">
        <route edges="6:5 5:1 1:3 3:7"/>
    </vehicle>
    <vehicle id="346" depart="138.40">
        <route edges="10:9 9:0 0:1 1:5"/>
    </vehicle>
    <vehicle id="348" depart="139.20">
        <route edges="7:3 3:1 1:0 0:2 2:8"/>
    </vehicle>
    <vehicle id="349" depart="139.60">
        <route edges="2:0 0:1 1:3"/>
    </vehicle>
    <vehicle id="350" depart="140.00">
        <route edges="8:2 2:0 0:1 1:3 3:7"/>
    </vehicle>
    <vehicle id="352" depart="140.80">
        <route edges="7:3 3:1 1:0 0:2 2:8"/>
    </vehicle>
    <vehicle id="353" depart="141.20">
        <route edges="1:3 3:7"/>
    </vehicle>
    <vehicle id="354" depart="141.60">
        <route edges="7:3 3:1 1:0 0:2 2:8"/>
    </vehicle>
    <vehicle id="355" depart="142.00">
        <route edges="8:2 2:0 0:1 1:3 3:7"/>
    </vehicle>
    <vehicle id="357" depart="142.80">
        <route edges="9:0 0:1"/>
    </vehicle>
    <vehicle id="358" depart="143.20">
        <route edges="2:0 0:1 1:3 3:7"/>
    </vehicle>
    <vehicle id="359" depart="143.60">
        <route edges="7:3 3:1"/>
    </vehicle>
    <vehicle id="361" depart="144.40">
        <route edges="8:2 2:0 0:1 1:3 3:7"/>
    </vehicle>
    <vehicle id="363" depart="145.20">
        <route edges="10:9 9:0 0:1 1:3"/>
    </vehicle>
    <vehicle id="364" depart="145.60">
        <route edges="7:3 3:1"/>
    </vehicle>
    <vehicle id="365" depart="146.00">
        <route edges="7:3 3:1 1:5 5:6"/>
    </vehicle>
    <vehicle id="368" depart="147.20">
        <route edges="10:9 9:0 0:2"/>
    </vehicle>
    <vehicle id="370" depart="148.00">
        <route edges="8:2 2:0 0:1 1:5 5:6"/>
    </vehicle>
    <vehicle id="371" depart="148.40">
        <route edges="7:3 3:1 1:0 0:2"/>
    </vehicle>
    <vehicle id="376" depart="150.40">
        <route edges="8:2 2:0 0:9 9:10"/>
    </vehicle>
    <vehicle id="377" depart="150.80">
        <route edges="7:3 3:1 1:0 0:2 2:8"/>
    </vehicle>
    <vehicle id="386" depart="154.40">
        <route edges="7:3 3:1 1:5"/>
    </vehicle>
    <vehicle id="388" depart="155.20">
        <route edges="9:0 0:1 1:5 5:6"/>
    </vehicle>
    <vehicle id="390" depart="156.00">
        <route edges="3:1 1:5"/>
    </vehicle>
    <vehicle id="393" depart="157.20">
        <route edges="6:5 5:1 1:0"/>
    </vehicle>
    <vehicle id="395" depart="158.00">
        <route edges="8:2 2:0 0:1 1:3 3:7"/>
    </vehicle>
    <vehicle id="396" depart="158.40">
        <route edges="7:3 3:1 1:5"/>
    </vehicle>
    <vehicle id="398" depart="159.20">
        <route edges="3:1 1:5 5:6"/>
    </vehicle>
    <vehicle id="399" depart="159.60">
        <route edges="2:0 0:1 1:3 3:7"/>
    </vehicle>
    <vehicle id="400" depart="160.00">
        <route edges="7:3 3:1 1:0 0:2 2:8"/>
    </vehicle>
    <vehicle id="403" depart="161.20">
        <route edges="7:3 3:1 1:0 0:2 2:8"/>
    </vehicle>
    <vehicle id="404" depart="161.60">
        <route edges="8:2 2:0 0:1 1:3 3:7"/>
    </vehicle>
    <vehicle id="405" depart="162.00">
        <route edges="10:9 9:0 0:2"/>
    </vehicle>
    <vehicle id="406" depart="162.40">
        <route edges="2:0 0:1 1:3"/>
    </vehicle>
    <vehicle id="407" depart="162.80">
        <route edges="0:1 1:5"/>
    </vehicle>
    <vehicle id="408" depart="163.20">
        <route edges="3:1 1:0 0:9 9:10"/>
    </vehicle>
    <vehicle id="411" depart="164.40">
        <route edges="2:0 0:1 1:3 3:7"/>
    </vehicle>
    <vehicle id="413" depart="165.20">
        <route edges="7:3 3:1 1:5"/>
    </vehicle>
    <vehicle id="414" depart="165.60">
        <route edges="3:1 1:0 0:9 9:10"/>
    </vehicle>
    <vehicle id="416" depart="166.40">
        <route edges="3:1 1:0 0:2"/>
    </vehicle>
    <vehicle id="418" depart="167.20">
        <route edges="7:3 3:1 1:0 0:2 2:8"/>
    </vehicle>
    <vehicle id="419" depart="167.60">
        <route edges="3:1 1:0 0:2"/>
    </vehicle>
    <vehicle id="422" depart="168.80">
        <route edges="8:2 2:0 0:1 1:5 5:6"/>
    </vehicle>
    <vehicle id="423" depart="169.20">
        <route edges="10:9 9:0 0:1 1:3 3:7"/>
    </vehicle>
    <vehicle id="425" depart="170.00">
        <route edges="0:1 1:3 3:7"/>
    </vehicle>
    <vehicle id="427" depart="170.80">
        <route edges="5:1 1:3 3:7"/>
    </vehicle>
    <vehicle id="430" depart="172.00">
        <route edges="7:3 3:1 1:0 0:2 2:8"/>
    </vehicle>
    <vehicle id="432" depart="172.80">
        <route edges="1:3"/>
    </vehicle>
    <vehicle id="435" depart="174.00">
        <route edges="7:3 3:1 1:0 0:2 2:8"/>
    </vehicle>
    <vehicle id="436" depart="174.40">
        <route edges="8:2 2:0 0:1 1:3 3:7"/>
    </vehicle>
    <vehicle id="437" depart="174.80">
        <route edges="8:2 2:0 0:1 1:5 5:6"/>
    </vehicle>
    <vehicle id="438" depart="175.20">
        <route edges="0:9"/>
    </vehicle>
    <vehicle id="439" depart="175.60">
        <route edges="6:5 5:1 1:0 0:2 2:8"/>
    </vehicle>
    <vehicle id="442" depart="176.80">
        <route edges="7:3 3:1 1:0 0:9"/>
    </vehicle>
    <vehicle id="443" depart="177.20">
        <route edges="7:3 3:1 1:0 0:9 9:10"/>
    </vehicle>
    <vehicle id="445" depart="178.00">
        <route edges="8:2 2:0 0:1 1:5 5:6"/>
    </vehicle>
    <vehicle id="447" depart="178.80">
        <route edges="2:0 0:1 1:3"/>
    </vehicle>
    <vehicle id="449" depart="179.60">
        <route edges="7:3 3:1 1:0 0:9 9:10"/>
    </vehicle>
    <vehicle id="450" depart="180.00">
        <route edges="8:2 2:0 0:1 1:5 5:6"/>
    </vehicle>
    <vehicle id="454" depart="181.60">
        <route edges="10:9 9:0"/>
    </vehicle>
    <vehicle id="455" depart="182.00">
        <route edges="5:1 1:0 0:2 2:8"/>
    </vehicle>
    <vehicle id="456" depart="182.40">
        <route edges="10:9 9:0 0:1 1:5 5:6"/>
    </vehicle>
    <vehicle id="458" depart="183.20">
        <route edges="10:9 9:0 0:2 2:8"/>
    </vehicle>
    <vehicle id="460" depart="184.00">
        <route edges="2:0 0:1 1:5 5:6"/>
    </vehicle>
    <vehicle id="461" depart="184.40">
        <route edges="7:3 3:1"/>
    </vehicle>
    <vehicle id="462" depart="184.80">
        <route edges="7:3 3:1 1:0 0:2 2:8"/>
    </vehicle>
    <vehicle id="464" depart="185.60">
        <route edges="8:2 2:0 0:1 1:5 5:6"/>
    </vehicle>
    <vehicle id="467" depart="186.80">
        <route edges="9:0"/>
    </vehicle>
    <vehicle id="468" depart="187.20">
        <route edges="7:3 3:1 1:0 0:2 2:8"/>
    </vehicle>
    <vehicle id="470" depart="188.00">
        <route edges="1:3 3:7"/>
    </vehicle>
    <vehicle id="472" depart="188.80">
        <route edges="2:0"/>
    </vehicle>
    <vehicle id="474" depart="189.60">
        <route edges="8:2 2:0 0:1 1:3 3:7"/>
    </vehicle>
    <vehicle id="477" depart="190.80">
        <route edges="10:9 9:0 0:1 1:3"/>
    </vehicle>
    <vehicle id="478" depart="191.20">
        <route edges="7:3 3:1 1:5"/>
    </vehicle>
    <vehicle id="479" depart="191.60">
        <route edges="0:9 9:10"/>
    </vehicle>
    <vehicle id="480" depart="192.00">
        <route edges="10:9 9:0 0:1 1:3 3:7"/>
    </vehicle>
    <vehicle id="482" depart="192.80">
        <route edges="3:1"/>
    </vehicle>
    <vehicle id="483" depart="193.20">
        <route edges="10:9 9:0 0:1 1:3 3:7"/>
    </vehicle>
    <vehicle id="486" depart="194.40">
        <route edges="7:3 3:1 1:5 5:6"/>
    </vehicle>
    <vehicle id="487" depart="194.80">
        <route edges="8:2 2:0 0:1 1:3 3:7"/>
    </vehicle>
    <vehicle id="489" depart="195.60">
        <route edges="8:2 2:0 0:1 1:3 3:7"/>
    </vehicle>
    <vehicle id="490" depart="196.00">
        <route edges="8:2 2:0 0:1 1:3"/>
    </vehicle>
    <vehicle id="491" depart="196.40">
        <route edges="0:2"/>
    </vehicle>
    <vehicle id="493" depart="197.20">
        <route edges="3:1 1:0 0:2 2:8"/>
    </vehicle>
    <vehicle id="498" depart="199.20">
        <route edges="7:3 3:1 1:0"/>
    </vehicle>
    <vehicle id="504" depart="201.60">
        <route edges="1:0 0:9"/>
    </vehicle>
    <vehicle id="506" depart="202.40">
        <route edges="0:2"/>
    </vehicle>
    <vehicle id="509" depart="203.60">
        <route edges="5:1 1:3 3:7"/>
    </vehicle>
    <vehicle id="511" depart="204.40">
        <route edges="3:1 1:0 0:2 2:8"/>
    </vehicle>
    <vehicle id="512" depart="204.80">
        <route edges="9:0 0:1 1:3 3:7"/>
    </vehicle>
    <vehicle id="513" depart="205.20">
        <route edges="7:3 3:1"/>
    </vehicle>
    <vehicle id="516" depart="206.40">
        <route edges="1:3 3:7"/>
    </vehicle>
    <vehicle id="517" depart="206.80">
        <route edges="8:2 2:0 0:1 1:5 5:6"/>
    </vehicle>
    <vehicle id="518" depart="207.20">
        <route edges="10:9 9:0 0:1 1:5"/>
    </vehicle>
    <vehicle id="519" depart="207.60">
        <route edges="8:2 2:0 0:1 1:3 3:7"/>
    </vehicle>
    <vehicle id="522" depart="208.80">
        <route edges="2:0"/>
    </vehicle>
    <vehicle id="523" depart="209.20">
        <route edges="9:0"/>
    </vehicle>
    <vehicle id="524" depart="209.60">
        <route edges="8:2 2:0 0:9 9:10"/>
    </vehicle>
    <vehicle id="526" depart="210.40">
        <route edges="1:0 0:2 2:8"/>
    </vehicle>
    <vehicle id="531" depart="212.40">
        <route edges="6:5 5:1 1:0 0:2"/>
    </vehicle>
    <vehicle id="534" depart="213.60">
        <route edges="7:3 3:1"/>
    </vehicle>
    <vehicle id="536" depart="214.40">
        <route edges="7:3 3:1 1:0 0:2 2:8"/>
    </vehicle>
    <vehicle id="537" depart="214.80">
        <route edges="8:2 2:0 0:9"/>
    </vehicle>
    <vehicle id="538" depart="215.20">
        <route edges="7:3 3:1 1:0 0:9"/>
    </vehicle>
    <vehicle id="539" depart="215.60">
        <route edges="1:0 0:2"/>
    </vehicle>
    <vehicle id="546" depart="218.40">
        <route edges="10:9 9:0 0:2 2:8"/>
    </vehicle>
    <vehicle id="550" depart="220.00">
        <route edges="2:0 0:1 1:3 3:7"/>
    </vehicle>
    <vehicle id="551" depart="220.40">
        <route edges="8:2 2:0 0:1 1:5"/>
    </vehicle>
    <vehicle id="554" depart="221.60">
        <route edges="3:1 1:0"/>
    </vehicle>
    <vehicle id="555" depart="222.00">
        <route edges="7:3 3:1 1:0 0:9 9:10"/>
    </vehicle>
    <vehicle id="561" depart="224.40">
        <route edges="10:9 9:0 0:1"/>
    </vehicle>
    <vehicle id="564" depart="225.60">
        <route edges="7:3 3:1 1:0 0:2"/>
    </vehicle>
    <vehicle id="565" depart="226.00">
        <route edges="3:1 1:0 0:2 2:8"/>
    </vehicle>
    <vehicle id="568" depart="227.20">
        <route edges="3:1 1:0 0:2 2:8"/>
    </vehicle>
    <vehicle id="569" depart="227.60">
        <route edges="5:1 1:3"/>
    </vehicle>
    <vehicle id="571" depart="228.40">
        <route edges="8:2 2:0"/>
    </vehicle>
    <vehicle id="572" depart="228.80">
        <route edges="7:3 3:1 1:0"/>
    </vehicle>
    <vehicle id="573" depart="229.20">
        <route edges="3:1 1:0"/>
    </vehicle>
    <vehicle id="580" depart="232.00">
        <route edges="2:0"/>
    </vehicle>
    <vehicle id="581" depart="232.40">
        <route edges="3:1 1:0 0:2"/>
    </vehicle>
    <vehicle id="582" depart="232.80">
        <route edges="2:0 0:9"/>
    </vehicle>
    <vehicle id="585" depart="234.00">
        <route edges="0:1 1:5"/>
    </vehicle>
    <vehicle id="589" depart="235.60">
        <route edges="6:5 5:1 1:0 0:2"/>
    </vehicle>
    <vehicle id="593" depart="237.20">
        <route edges="8:2 2:0 0:1 1:5"/>
    </vehicle>
    <vehicle id="594" depart="237.60">
        <route edges="8:2 2:0 0:9"/>
    </vehicle>
    <vehicle id="595" depart="238.00">
        <route edges="7:3 3:1 1:5"/>
    </vehicle>
    <vehicle id="601" depart="240.40">
        <route edges="9:0 0:1 1:3 3:7"/>
    </vehicle>
    <vehicle id="603" depart="241.20">
        <route edges="6:5 5:1 1:0 0:9 9:10"/>
    </vehicle>
    <vehicle id="606" depart="242.40">
        <route edges="8:2 2:0 0:1 1:3"/>
    </vehicle>
    <vehicle id="609" depart="243.60">
        <route edges="6:5 5:1 1:0 0:9"/>
    </vehicle>
    <vehicle id="610" depart="244.00">
        <route edges="8:2 2:0 0:1 1:3"/>
    </vehicle>
    <vehicle id="612" depart="244.80">
        <route edges="7:3 3:1"/>
    </vehicle>
    <vehicle id="616" depart="246.40">
        <route edges="3:1 1:5 5:6"/>
    </vehicle>
    <vehicle id="619" depart="247.60">
        <route edges="2:0 0:1 1:3 3:7"/>
    </vehicle>
    <vehicle id="620" depart="248.00">
        <route edges="3:1 1:0 0:9 9:10"/>
    </vehicle>
    <vehicle id="622" depart="248.80">
        <route edges="10:9 9:0 0:2 2:8"/>
    </vehicle>
    <vehicle id="623" depart="249.20">
        <route edges="9:0 0:1 1:3 3:7"/>
    </vehicle>
    <vehicle id="624" depart="249.60">
        <route edges="6:5 5:1 1:0 0:2 2:8"/>
    </vehicle>
    <vehicle id="625" depart="250.00">
        <route edges="6:5 5:1 1:0"/>
    </vehicle>
    <vehicle id="627" depart="250.80">
        <route edges="8:2 2:0 0:1 1:5 5:6"/>
    </vehicle>
    <vehicle id="629" depart="251.60">
        <route edges="8:2 2:0 0:1 1:3"/>
    </vehicle>
    <vehicle id="632" depart="252.80">
        <route edges="0:1 1:3"/>
    </vehicle>
    <vehicle id="633" depart="253.20">
        <route edges="8:2 2:0 0:1 1:3"/>
    </vehicle>
    <vehicle id="634" depart="253.60">
        <route edges="5:1 1:0 0:9 9:10"/>
    </vehicle>
    <vehicle id="635" depart="254.00">
        <route edges="6:5 5:1 1:3"/>
    </vehicle>
    <vehicle id="640" depart="256.00">
        <route edges="7:3 3:1"/>
    </vehicle>
    <vehicle id="642" depart="256.80">
        <route edges="2:0 0:1 1:3"/>
    </vehicle>