<?xml version="1.0" encoding="UTF-8"?>

<!-- generated on Thu Feb 13 14:16:09 2014 by SUMO duarouter Version 0.18.0
<?xml version="1.0" encoding="UTF-8"?>

<configuration xmlns:xsi="http://www.w3.org/2001/XMLSchema-instance" xsi:noNamespaceSchemaLocation="http://sumo.sf.net/xsd/duarouterConfiguration.xsd">

    <input>
        <net-file value="twinT.net.xml"/>
        <trip-files value="experimentos/twinT.p0.7.4.trips.xml"/>
    </input>

    <output>
        <output-file value="experimentos/twinT.p0.7.4.rou.xml"/>
    </output>

    <processing>
        <ignore-errors value="true"/>
    </processing>

    <random_number>
        <random value="true"/>
    </random_number>

</configuration>
-->

<routes xmlns:xsi="http://www.w3.org/2001/XMLSchema-instance" xsi:noNamespaceSchemaLocation="http://sumo.sf.net/xsd/routes_file.xsd">
    <vehicle id="0" depart="0.00">
        <route edges="7:3 3:1 1:0 0:2 2:8"/>
    </vehicle>
    <vehicle id="2" depart="1.40">
        <route edges="3:1 1:5 5:6"/>
    </vehicle>
    <vehicle id="3" depart="2.10">
        <route edges="7:3 3:1 1:0 0:9 9:10"/>
    </vehicle>
    <vehicle id="5" depart="3.50">
        <route edges="3:1 1:5"/>
    </vehicle>
    <vehicle id="6" depart="4.20">
        <route edges="8:2 2:0 0:1 1:3 3:7"/>
    </vehicle>
    <vehicle id="7" depart="4.90">
        <route edges="6:5 5:1 1:0 0:9 9:10"/>
    </vehicle>
    <vehicle id="8" depart="5.60">
        <route edges="7:3 3:1 1:0 0:2"/>
    </vehicle>
    <vehicle id="10" depart="7.00">
        <route edges="0:1 1:3 3:7"/>
    </vehicle>
    <vehicle id="11" depart="7.70">
        <route edges="8:2 2:0 0:1"/>
    </vehicle>
    <vehicle id="12" depart="8.40">
        <route edges="1:3 3:7"/>
    </vehicle>
    <vehicle id="13" depart="9.10">
        <route edges="7:3 3:1 1:0 0:2 2:8"/>
    </vehicle>
    <vehicle id="16" depart="11.20">
        <route edges="7:3 3:1 1:0 0:9 9:10"/>
    </vehicle>
    <vehicle id="19" depart="13.30">
        <route edges="1:0 0:2 2:8"/>
    </vehicle>
    <vehicle id="22" depart="15.40">
        <route edges="8:2 2:0 0:1 1:5"/>
    </vehicle>
    <vehicle id="28" depart="19.60">
        <route edges="7:3 3:1 1:0 0:9"/>
    </vehicle>
    <vehicle id="29" depart="20.30">
        <route edges="6:5 5:1 1:0 0:2"/>
    </vehicle>
    <vehicle id="35" depart="24.50">
        <route edges="0:1 1:5 5:6"/>
    </vehicle>
    <vehicle id="39" depart="27.30">
        <route edges="2:0 0:9 9:10"/>
    </vehicle>
    <vehicle id="40" depart="28.00">
        <route edges="5:1 1:0 0:2 2:8"/>
    </vehicle>
    <vehicle id="41" depart="28.70">
        <route edges="1:3"/>
    </vehicle>
    <vehicle id="42" depart="29.40">
        <route edges="8:2 2:0 0:1 1:3"/>
    </vehicle>
    <vehicle id="43" depart="30.10">
        <route edges="8:2 2:0"/>
    </vehicle>
    <vehicle id="44" depart="30.80">
        <route edges="5:1 1:0 0:2 2:8"/>
    </vehicle>
    <vehicle id="45" depart="31.50">
        <route edges="1:3"/>
    </vehicle>
    <vehicle id="48" depart="33.60">
        <route edges="0:2 2:8"/>
    </vehicle>
    <vehicle id="50" depart="35.00">
        <route edges="10:9 9:0 0:1 1:5 5:6"/>
    </vehicle>
    <vehicle id="53" depart="37.10">
        <route edges="2:0 0:1 1:3 3:7"/>
    </vehicle>
    <vehicle id="54" depart="37.80">
        <route edges="8:2 2:0 0:1"/>
    </vehicle>
    <vehicle id="55" depart="38.50">
        <route edges="6:5 5:1 1:0 0:9 9:10"/>
    </vehicle>
    <vehicle id="58" depart="40.60">
        <route edges="9:0 0:1 1:3"/>
    </vehicle>
    <vehicle id="59" depart="41.30">
        <route edges="10:9 9:0"/>
    </vehicle>
    <vehicle id="60" depart="42.00">
        <route edges="8:2 2:0 0:1 1:5 5:6"/>
    </vehicle>
    <vehicle id="65" depart="45.50">
        <route edges="8:2 2:0 0:1 1:3 3:7"/>
    </vehicle>
    <vehicle id="67" depart="46.90">
        <route edges="8:2 2:0 0:9 9:10"/>
    </vehicle>
    <vehicle id="69" depart="48.30">
        <route edges="2:0 0:1 1:5"/>
    </vehicle>
    <vehicle id="70" depart="49.00">
        <route edges="7:3 3:1 1:0 0:2 2:8"/>
    </vehicle>
    <vehicle id="72" depart="50.40">
        <route edges="0:2 2:8"/>
    </vehicle>
    <vehicle id="73" depart="51.10">
        <route edges="8:2 2:0 0:1 1:3 3:7"/>
    </vehicle>
    <vehicle id="75" depart="52.50">
        <route edges="0:2 2:8"/>
    </vehicle>
    <vehicle id="80" depart="56.00">
        <route edges="6:5 5:1 1:0 0:2 2:8"/>
    </vehicle>
    <vehicle id="81" depart="56.70">
        <route edges="6:5 5:1 1:3 3:7"/>
    </vehicle>
    <vehicle id="84" depart="58.80">
        <route edges="8:2 2:0 0:1 1:5 5:6"/>
    </vehicle>
    <vehicle id="86" depart="60.20">
        <route edges="8:2 2:0 0:1 1:3"/>
    </vehicle>
    <vehicle id="87" depart="60.90">
        <route edges="1:0 0:9"/>
    </vehicle>
    <vehicle id="89" depart="62.30">
        <route edges="8:2 2:0 0:1 1:5 5:6"/>
    </vehicle>
    <vehicle id="90" depart="63.00">
        <route edges="8:2 2:0 0:1 1:5"/>
    </vehicle>
    <vehicle id="92" depart="64.40">
        <route edges="8:2 2:0"/>
    </vehicle>
    <vehicle id="95" depart="66.50">
        <route edges="10:9 9:0 0:1 1:3 3:7"/>
    </vehicle>
    <vehicle id="96" depart="67.20">
        <route edges="10:9 9:0 0:1 1:3 3:7"/>
    </vehicle>
    <vehicle id="99" depart="69.30">
        <route edges="1:0"/>
    </vehicle>
    <vehicle id="102" depart="71.40">
        <route edges="7:3 3:1 1:0"/>
    </vehicle>
    <vehicle id="103" depart="72.10">
        <route edges="5:1 1:3 3:7"/>
    </vehicle>
    <vehicle id="107" depart="74.90">
        <route edges="3:1 1:0 0:2 2:8"/>
    </vehicle>
    <vehicle id="109" depart="76.30">
        <route edges="0:2"/>
    </vehicle>
    <vehicle id="113" depart="79.10">
        <route edges="6:5 5:1 1:0 0:9"/>
    </vehicle>
    <vehicle id="117" depart="81.90">
        <route edges="10:9 9:0 0:1 1:3 3:7"/>
    </vehicle>
    <vehicle id="119" depart="83.30">
        <route edges="6:5 5:1 1:0 0:2"/>
    </vehicle>
    <vehicle id="122" depart="85.40">
        <route edges="7:3 3:1 1:0 0:2 2:8"/>
    </vehicle>
    <vehicle id="123" depart="86.10">
        <route edges="6:5 5:1 1:0"/>
    </vehicle>
    <vehicle id="125" depart="87.50">
        <route edges="1:0 0:2"/>
    </vehicle>
    <vehicle id="130" depart="91.00">
        <route edges="7:3 3:1 1:0 0:2 2:8"/>
    </vehicle>
    <vehicle id="132" depart="92.40">
        <route edges="6:5 5:1"/>
    </vehicle>
    <vehicle id="133" depart="93.10">
        <route edges="0:1"/>
    </vehicle>
    <vehicle id="134" depart="93.80">
        <route edges="6:5 5:1 1:0 0:9"/>
    </vehicle>
    <vehicle id="137" depart="95.90">
        <route edges="2:0 0:1 1:3"/>
    </vehicle>
    <vehicle id="140" depart="98.00">
        <route edges="2:0 0:1 1:3 3:7"/>
    </vehicle>
    <vehicle id="141" depart="98.70">
        <route edges="7:3 3:1 1:0 0:2 2:8"/>
    </vehicle>
    <vehicle id="143" depart="100.10">
        <route edges="1:0 0:9"/>
    </vehicle>
    <vehicle id="144" depart="100.80">
        <route edges="7:3 3:1 1:0"/>
    </vehicle>
    <vehicle id="145" depart="101.50">
        <route edges="0:1 1:3"/>
    </vehicle>
    <vehicle id="146" depart="102.20">
        <route edges="10:9 9:0 0:2 2:8"/>
    </vehicle>
    <vehicle id="147" depart="102.90">
        <route edges="2:0 0:1 1:3 3:7"/>
    </vehicle>
    <vehicle id="151" depart="105.70">
        <route edges="9:0 0:1 1:3"/>
    </vehicle>
    <vehicle id="153" depart="107.10">
        <route edges="9:0 0:2"/>
    </vehicle>
    <vehicle id="154" depart="107.80">
        <route edges="3:1 1:0 0:2 2:8"/>
    </vehicle>
    <vehicle id="155" depart="108.50">
        <route edges="8:2 2:0 0:9"/>
    </vehicle>
    <vehicle id="157" depart="109.90">
        <route edges="3:1 1:5 5:6"/>
    </vehicle>
    <vehicle id="158" depart="110.60">
        <route edges="0:2 2:8"/>
    </vehicle>
    <vehicle id="162" depart="113.40">
        <route edges="7:3 3:1 1:0 0:2 2:8"/>
    </vehicle>
    <vehicle id="165" depart="115.50">
        <route edges="8:2 2:0 0:1 1:3 3:7"/>
    </vehicle>
    <vehicle id="166" depart="116.20">
        <route edges="1:3"/>
    </vehicle>
    <vehicle id="168" depart="117.60">
        <route edges="10:9 9:0 0:1"/>
    </vehicle>
    <vehicle id="171" depart="119.70">
        <route edges="8:2 2:0 0:1 1:5 5:6"/>
    </vehicle>
    <vehicle id="173" depart="121.10">
        <route edges="0:1 1:3 3:7"/>
    </vehicle>
    <vehicle id="174" depart="121.80">
        <route edges="3:1 1:0 0:2 2:8"/>
    </vehicle>
    <vehicle id="176" depart="123.20">
        <route edges="1:0 0:2"/>
    </vehicle>
    <vehicle id="178" depart="124.60">
        <route edges="2:0 0:1 1:3 3:7"/>
    </vehicle>
    <vehicle id="179" depart="125.30">
        <route edges="3:1 1:5 5:6"/>
    </vehicle>
    <vehicle id="181" depart="126.70">
        <route edges="8:2 2:0 0:1 1:3 3:7"/>
    </vehicle>
    <vehicle id="184" depart="128.80">
        <route edges="3:1 1:5 5:6"/>
    </vehicle>
    <vehicle id="187" depart="130.90">
        <route edges="7:3 3:1 1:0"/>
    </vehicle>
    <vehicle id="189" depart="132.30">
        <route edges="8:2 2:0 0:1 1:5 5:6"/>
    </vehicle>
    <vehicle id="192" depart="134.40">
        <route edges="7:3 3:1"/>
    </vehicle>
    <vehicle id="196" depart="137.20">
        <route edges="10:9 9:0 0:1 1:3"/>
    </vehicle>
    <vehicle id="197" depart="137.90">
        <route edges="6:5 5:1 1:3 3:7"/>
    </vehicle>
    <vehicle id="198" depart="138.60">
        <route edges="8:2 2:0 0:1 1:5 5:6"/>
    </vehicle>
    <vehicle id="199" depart="139.30">
        <route edges="8:2 2:0 0:9 9:10"/>
    </vehicle>
    <vehicle id="202" depart="141.40">
        <route edges="6:5 5:1 1:0 0:2"/>
    </vehicle>
    <vehicle id="203" depart="142.10">
        <route edges="5:1 1:0 0:9 9:10"/>
    </vehicle>
    <vehicle id="204" depart="142.80">
        <route edges="2:0 0:1 1:3"/>
    </vehicle>
    <vehicle id="205" depart="143.50">
        <route edges="7:3 3:1 1:0"/>
    </vehicle>
    <vehicle id="206" depart="144.20">
        <route edges="8:2 2:0 0:9"/>
    </vehicle>
    <vehicle id="209" depart="146.30">
        <route edges="7:3 3:1 1:0 0:2 2:8"/>
    </vehicle>
    <vehicle id="210" depart="147.00">
        <route edges="7:3 3:1"/>
    </vehicle>
    <vehicle id="211" depart="147.70">
        <route edges="8:2 2:0 0:1"/>
    </vehicle>
    <vehicle id="213" depart="149.10">
        <route edges="3:1 1:0 0:2 2:8"/>
    </vehicle>
    <vehicle id="219" depart="153.30">
        <route edges="1:3 3:7"/>
    </vehicle>
    <vehicle id="220" depart="154.00">
        <route edges="3:1 1:0 0:9 9:10"/>
    </vehicle>
    <vehicle id="222" depart="155.40">
        <route edges="7:3 3:1 1:0 0:2 2:8"/>
    </vehicle>
    <vehicle id="223" depart="156.10">
        <route edges="7:3 3:1 1:0 0:2 2:8"/>
    </vehicle>
    <vehicle id="225" depart="157.50">
        <route edges="2:0 0:1 1:3"/>
    </vehicle>
    <vehicle id="226" depart="158.20">
        <route edges="0:2"/>
    </vehicle>
    <vehicle id="228" depart="159.60">
        <route edges="8:2 2:0 0:1 1:5"/>
    </vehicle>
    <vehicle id="229" depart="160.30">
        <route edges="10:9 9:0 0:1 1:5"/>
    </vehicle>
    <vehicle id="234" depart="163.80">
        <route edges="2:0 0:1 1:3 3:7"/>
    </vehicle>
    <vehicle id="241" depart="168.70">
        <route edges="7:3 3:1 1:0 0:2 2:8"/>
    </vehicle>
    <vehicle id="242" depart="169.40">
        <route edges="8:2 2:0 0:1 1:3"/>
    </vehicle>
    <vehicle id="244" depart="170.80">
        <route edges="7:3 3:1 1:0 0:2"/>
    </vehicle>
    <vehicle id="247" depart="172.90">
        <route edges="8:2 2:0 0:1 1:3 3:7"/>
    </vehicle>
    <vehicle id="248" depart="173.60">
        <route edges="7:3 3:1 1:0"/>
    </vehicle>
    <vehicle id="250" depart="175.00">
        <route edges="9:0 0:2 2:8"/>
    </vehicle>
    <vehicle id="251" depart="175.70">
        <route edges="2:0 0:9 9:10"/>
    </vehicle>
    <vehicle id="253" depart="177.10">
        <route edges="8:2 2:0 0:9 9:10"/>
    </vehicle>
    <vehicle id="254" depart="177.80">
        <route edges="5:1"/>
    </vehicle>
    <vehicle id="255" depart="178.50">
        <route edges="1:3 3:7"/>
    </vehicle>
    <vehicle id="256" depart="179.20">
        <route edges="7:3 3:1"/>
    </vehicle>
    <vehicle id="259" depart="181.30">
        <route edges="0:1 1:3 3:7"/>
    </vehicle>
    <vehicle id="260" depart="182.00">
        <route edges="10:9 9:0 0:1 1:3 3:7"/>
    </vehicle>
    <vehicle id="261" depart="182.70">
        <route edges="8:2 2:0 0:1"/>
    </vehicle>
    <vehicle id="262" depart="183.40">
        <route edges="10:9 9:0 0:1 1:3 3:7"/>
    </vehicle>
    <vehicle id="263" depart="184.10">
        <route edges="3:1 1:0 0:2 2:8"/>
    </vehicle>
    <vehicle id="267" depart="186.90">
        <route edges="7:3 3:1 1:0 0:9 9:10"/>
    </vehicle>
    <vehicle id="271" depart="189.70">
        <route edges="8:2 2:0 0:1 1:3 3:7"/>
    </vehicle>
    <vehicle id="272" depart="190.40">
        <route edges="1:3 3:7"/>
    </vehicle>
    <vehicle id="273" depart="191.10">
        <route edges="7:3 3:1 1:0 0:2 2:8"/>
    </vehicle>
    <vehicle id="274" depart="191.80">
        <route edges="1:3 3:7"/>
    </vehicle>
    <vehicle id="276" depart="193.20">
        <route edges="6:5 5:1 1:3"/>
    </vehicle>
    <vehicle id="278" depart="194.60">
        <route edges="3:1 1:0 0:2 2:8"/>
    </vehicle>
    <vehicle id="281" depart="196.70">
        <route edges="1:3"/>
    </vehicle>
    <vehicle id="286" depart="200.20">
        <route edges="0:1 1:3 3:7"/>
    </vehicle>
    <vehicle id="287" depart="200.90">
        <route edges="6:5 5:1 1:0 0:2 2:8"/>
    </vehicle>
    <vehicle id="288" depart="201.60">
        <route edges="6:5 5:1 1:0 0:2"/>
    </vehicle>
    <vehicle id="289" depart="202.30">
        <route edges="8:2 2:0 0:1 1:3 3:7"/>
    </vehicle>
    <vehicle id="290" depart="203.00">
        <route edges="8:2 2:0"/>
    </vehicle>
    <vehicle id="291" depart="203.70">
        <route edges="7:3 3:1 1:0 0:2 2:8"/>
    </vehicle>
    <vehicle id="295" depart="206.50">
        <route edges="9:0 0:2 2:8"/>
    </vehicle>
    <vehicle id="297" depart="207.90">
        <route edges="7:3 3:1 1:0 0:2 2:8"/>
    </vehicle>
    <vehicle id="298" depart="208.60">
        <route edges="8:2 2:0 0:1 1:3 3:7"/>
    </vehicle>
    <vehicle id="299" depart="209.30">
        <route edges="6:5 5:1 1:3"/>
    </vehicle>
    <vehicle id="300" depart="210.00">
        <route edges="1:5 5:6"/>
    </vehicle>
    <vehicle id="306" depart="214.20">
        <route edges="5:1 1:3 3:7"/>
    </vehicle>
    <vehicle id="307" depart="214.90">
        <route edges="8:2 2:0"/>
    </vehicle>
    <vehicle id="318" depart="222.60">
        <route edges="10:9 9:0 0:1 1:3"/>
    </vehicle>
    <vehicle id="323" depart="226.10">
        <route edges="8:2 2:0 0:1 1:3 3:7"/>
    </vehicle>
    <vehicle id="325" depart="227.50">
        <route edges="6:5 5:1 1:0 0:2"/>
    </vehicle>
    <vehicle id="329" depart="230.30">
        <route edges="9:0 0:2 2:8"/>
    </vehicle>
    <vehicle id="330" depart="231.00">
        <route edges="3:1 1:0 0:2 2:8"/>
    </vehicle>
    <vehicle id="333" depart="233.10">
        <route edges="6:5 5:1 1:3 3:7"/>
    </vehicle>
    <vehicle id="337" depart="235.90">
        <route edges="7:3 3:1 1:0 0:9"/>
    </vehicle>
    <vehicle id="341" depart="238.70">
        <route edges="7:3 3:1 1:0 0:2 2:8"/>
    </vehicle>
    <vehicle id="345" depart="241.50">
        <route edges="0:2 2:8"/>
    </vehicle>
    <vehicle id="346" depart="242.20">
        <route edges="2:0 0:1 1:5"/>
    </vehicle>
    <vehicle id="348" depart="243.60">
        <route edges="6:5 5:1 1:3"/>
    </vehicle>
    <vehicle id="349" depart="244.30">
        <route edges="6:5 5:1 1:0 0:2 2:8"/>
    </vehicle>
    <vehicle id="352" depart="246.40">
        <route edges="6:5 5:1 1:0 0:9 9:10"/>
    </vehicle>
    <vehicle id="354" depart="247.80">
        <route edges="0:1"/>
    </vehicle>
    <vehicle id="355" depart="248.50">
        <route edges="7:3 3:1 1:0 0:2 2:8"/>
    </vehicle>
    <vehicle id="356" depart="249.20">
        <route edges="2:0 0:9 9:10"/>
    </vehicle>
    <vehicle id="357" depart="249.90">
        <route edges="9:0 0:2 2:8"/>
    </vehicle>
    <vehicle id="359" depart="251.30">
        <route edges="1:3 3:7"/>
    </vehicle>
    <vehicle id="360" depart="252.00">
        <route edges="7:3 3:1 1:5"/>
    </vehicle>
    <vehicle id="361" depart="252.70">
        <route edges="0:2 2:8"/>
    </vehicle>
    <vehicle id="363" depart="254.10">
        <route edges="5:1 1:3 3:7"/>
    </vehicle>
    <vehicle id="366" depart="256.20">
        <route edges="2:0 0:9"/>
    </vehicle>
    <vehicle id="369" depart="258.30">
        <route edges="5:1 1:0 0:2 2:8"/>
    </vehicle>
    <vehicle id="371" depart="259.70">
        <route edges="7:3 3:1 1:5"/>
    </vehicle>
    <vehicle id="373" depart="261.10">
        <route edges="6:5 5:1 1:0 0:2 2:8"/>
    </vehicle>
    <vehicle id="378" depart="264.60">
        <route edges="8:2 2:0 0:1 1:5 5:6"/>
    </vehicle>
    <vehicle id="382" depart="267.40">
        <route edges="6:5 5:1 1:0"/>
    </vehicle>
    <vehicle id="386" depart="270.20">
        <route edges="10:9 9:0 0:1 1:5 5:6"/>
    </vehicle>
    <vehicle id="388" depart="271.60">
        <route edges="7:3 3:1 1:0 0:2 2:8"/>
    </vehicle>
    <vehicle id="390" depart="273.00">
        <route edges="8:2 2:0 0:1 1:3 3:7"/>
    </vehicle>
    <vehicle id="397" depart="277.90">
        <route edges="8:2 2:0 0:9 9:10"/>
    </vehicle>
    <vehicle id="400" depart="280.00">
        <route edges="8:2 2:0 0:9 9:10"/>
    </vehicle>
    <vehicle id="402" depart="281.40">
        <route edges="3:1 1:0 0:2"/>
    </vehicle>
    <vehicle id="405" depart="283.50">
        <route edges="8:2 2:0 0:1 1:3 3:7"/>
    </vehicle>
    <vehicle id="409" depart="286.30">
        <route edges="5:1 1:3 3:7"/>
    </vehicle>
    <vehicle id="412" depart="288.40">
        <route edges="2:0 0:9"/>
    </vehicle>
    <vehicle id="413" depart="289.10">
        <route edges="7:3 3:1 1:0 0:9"/>
    </vehicle>
    <vehicle id="416" depart="291.20">
        <route edges="0:1 1:3 3:7"/>
    </vehicle>
    <vehicle id="418" depart="292.60">
        <route edges="2:0 0:1 1:3 3:7"/>
    </vehicle>
    <vehicle id="420" depart="294.00">
        <route edges="7:3 3:1 1:5"/>
    </vehicle>
    <vehicle id="425" depart="297.50">
        <route edges="7:3 3:1 1:0 0:2"/>
    </vehicle>
    <vehicle id="433" depart="303.10">
        <route edges="7:3 3:1 1:0"/>
    </vehicle>
    <vehicle id="436" depart="305.20">
        <route edges="1:0"/>
    </vehicle>
    <vehicle id="437" depart="305.90">
        <route edges="8:2 2:0 0:9 9:10"/>
    </vehicle>
    <vehicle id="438" depart="306.60">
        <route edges="10:9 9:0 0:1 1:5 5:6"/>
    </vehicle>
    <vehicle id="442" depart="309.40">
        <route edges="10:9 9:0 0:1 1:3 3:7"/>
    </vehicle>
    <vehicle id="444" depart="310.80">
        <route edges="10:9 9:0 0:1 1:3 3:7"/>
    </vehicle>
    <vehicle id="445" depart="311.50">
        <route edges="8:2 2:0 0:1 1:5 5:6"/>
    </vehicle>
    <vehicle id="446" depart="312.20">
        <route edges="0:2"/>
    </vehicle>
    <vehicle id="447" depart="312.90">
        <route edges="6:5 5:1 1:3 3:7"/>
    </vehicle>
    <vehicle id="448" depart="313.60">
        <route edges="10:9 9:0 0:2"/>
    </vehicle>
    <vehicle id="453" depart="317.10">
        <route edges="6:5 5:1 1:0 0:2 2:8"/>
    </vehicle>
    <vehicle id="455" depart="318.50">
        <route edges="10:9 9:0 0:2 2:8"/>
    </vehicle>
    <vehicle id="457" depart="319.90">
        <route edges="8:2 2:0"/>
    </vehicle>
    <vehicle id="459" depart="321.30">
        <route edges="7:3 3:1 1:5"/>
    </vehicle>
    <vehicle id="461" depart="322.70">
        <route edges="1:3"/>
    </vehicle>
    <vehicle id="463" depart="324.10">
        <route edges="7:3 3:1"/>
    </vehicle>
    <vehicle id="465" depart="325.50">
        <route edges="3:1 1:0 0:9 9:10"/>
    </vehicle>
    <vehicle id="466" depart="326.20">
        <route edges="3:1 1:0 0:2"/>
    </vehicle>
    <vehicle id="468" depart="327.60">
        <route edges="5:1 1:3 3:7"/>
    </vehicle>
    <vehicle id="471" depart="329.70">
        <route edges="7:3 3:1"/>
    </vehicle>
    <vehicle id="472" depart="330.40">
        <route edges="3:1 1:0 0:2"/>
    </vehicle>
    <vehicle id="486" depart="340.20">
        <route edges="3:1 1:0 0:9 9:10"/>
    </vehicle>
    <vehicle id="487" depart="340.90">
        <route edges="6:5 5:1 1:3 3:7"/>
    </vehicle>
    <vehicle id="488" depart="341.60">
        <route edges="5:1 1:0 0:2"/>
    </vehicle>
    <vehicle id="489" depart="342.30">
        <route edges="7:3 3:1 1:0"/>
    </vehicle>
    <vehicle id="492" depart="344.40">
        <route edges="8:2 2:0"/>
    </vehicle>
    <vehicle id="493" depart="345.10">
        <route edges="0:1 1:3 3:7"/>
    </vehicle>
    <vehicle id="494" depart="345.80">
        <route edges="6:5 5:1 1:0 0:2 2:8"/>
    </vehicle>
    <vehicle id="495" depart="346.50">
        <route edges="8:2 2:0 0:1 1:5"/>
    </vehicle>
    <vehicle id="496" depart="347.20">
        <route edges="10:9 9:0 0:1 1:3"/>
    </vehicle>
    <vehicle id="498" depart="348.60">
        <route edges="3:1 1:5 5:6"/>
    </vehicle>
    <vehicle id="500" depart="350.00">
        <route edges="7:3 3:1 1:0"/>
    </vehicle>
    <vehicle id="501" depart="350.70">
        <route edges="7:3 3:1 1:0 0:9"/>
    </vehicle>
    <vehicle id="502" depart="351.40">
        <route edges="5:1 1:3"/>
    </vehicle>
    <vehicle id="505" depart="353.50">
        <route edges="8:2 2:0 0:1 1:3"/>
    </vehicle>
    <vehicle id="506" depart="354.20">
        <route edges="2:0 0:9 9:10"/>
    </vehicle>
    <vehicle id="507" depart="354.90">
        <route edges="3:1 1:5 5:6"/>
    </vehicle>
    <vehicle id="508" depart="355.60">
        <route edges="8:2 2:0 0:1 1:5"/>
    </vehicle>
    <vehicle id="511" depart="357.70">
        <route edges="8:2 2:0 0:1 1:3"/>
    </vehicle>
    <vehicle id="512" depart="358.40">
        <route edges="1:3"/>
    </vehicle>
    <vehicle id="513" depart="359.10">
        <route edges="9:0 0:1 1:3"/>
    </vehicle>
    <vehicle id="518" depart="362.60">
        <route edges="6:5 5:1 1:3 3:7"/>
    </vehicle>
    <vehicle id="519" depart="363.30">
        <route edges="10:9 9:0 0:1 1:5 5:6"/>
    </vehicle>
    <vehicle id="521" depart="364.70">
        <route edges="10:9 9:0 0:2"/>
    </vehicle>
    <vehicle id="522" depart="365.40">
        <route edges="0:1 1:3 3:7"/>
    </vehicle>
    <vehicle id="523" depart="366.10">
        <route edges="5:1 1:3 3:7"/>
    </vehicle>
    <vehicle id="528" depart="369.60">
        <route edges="8:2 2:0 0:1 1:3"/>
    </vehicle>
    <vehicle id="530" depart="371.00">
        <route edges="2:0 0:1 1:5 5:6"/>
    </vehicle>
    <vehicle id="531" depart="371.70">
        <route edges="8:2 2:0 0:1 1:5 5:6"/>
    </vehicle>
    <vehicle id="533" depart="373.10">
        <route edges="8:2 2:0 0:1 1:3 3:7"/>
    </vehicle>
    <vehicle id="534" depart="373.80">
        <route edges="10:9 9:0 0:1 1:3 3:7"/>
    </vehicle>
    <vehicle id="535" depart="374.50">
        <route edges="7:3 3:1 1:0 0:2"/>
    </vehicle>
    <vehicle id="536" depart="375.20">
        <route edges="2:0 0:1 1:3 3:7"/>
    </vehicle>
    <vehicle id="538" depart="376.60">
        <route edges="8:2 2:0 0:9"/>
    </vehicle>
    <vehicle id="540" depart="378.00">
        <route edges="3:1 1:0 0:9 9:10"/>
    </vehicle>
    <vehicle id="542" depart="379.40">
        <route edges="3:1 1:5"/>
    </vehicle>
    <vehicle id="543" depart="380.10">
        <route edges="0:2 2:8"/>
    </vehicle>
    <vehicle id="544" depart="380.80">
        <route edges="6:5 5:1 1:0 0:2"/>
    </vehicle>
    <vehicle id="545" depart="381.50">
        <route edges="8:2 2:0 0:1"/>
    </vehicle>
    <vehicle id="547" depart="382.90">
        <route edges="5:1 1:0"/>
    </vehicle>
    <vehicle id="548" depart="383.60">
        <route edges="7:3 3:1 1:0 0:2"/>
    </vehicle>
    <vehicle id="550" depart="385.00">
        <route edges="7:3 3:1 1:0 0:9"/>
    </vehicle>
    <vehicle id="553" depart="387.10">
        <route edges="7:3 3:1 1:0 0:2 2:8"/>
    </vehicle>
    <vehicle id="557" depart="389.90">
        <route edges="10:9 9:0 0:2 2:8"/>
    </vehicle>
    <vehicle id="560" depart="392.00">
        <route edges="9:0 0:2 2:8"/>
    </vehicle>
    <vehicle id="561" depart="392.70">
        <route edges="8:2 2:0 0:1 1:5 5:6"/>
    </vehicle>
    <vehicle id="563" depart="394.10">
        <route edges="10:9 9:0 0:1 1:3 3:7"/>
    </vehicle>
    <vehicle id="564" depart="394.80">
        <route edges="3:1"/>
    </vehicle>
    <vehicle id="565" depart="395.50">
        <route edges="3:1 1:0 0:2"/>
    </vehicle>
    <vehicle id="573" depart="401.10">
        <route edges="7:3 3:1 1:0 0:2 2:8"/>
    </vehicle>
    <vehicle id="576" depart="403.20">
        <route edges="10:9 9:0 0:1"/>
    </vehicle>
    <vehicle id="578" depart="404.60">
        <route edges="1:5 5:6"/>
    </vehicle>
    <vehicle id="579" depart="405.30">
        <route edges="9:0 0:1 1:3"/>
    </vehicle>
    <vehicle id="580" depart="406.00">
        <route edges="7:3 3:1 1:5 5:6"/>
    </vehicle>
    <vehicle id="586" depart="410.20">
        <route edges="10:9 9:0 0:1 1:3 3:7"/>
    </vehicle>
    <vehicle id="587" depart="410.90">
        <route edges="10:9 9:0 0:2 2:8"/>
    </vehicle>
    <vehicle id="588" depart="411.60">
        <route edges="2:0 0:9"/>
    </vehicle>
    <vehicle id="590" depart="413.00">
        <route edges="10:9 9:0 0:1 1:3 3:7"/>
    </vehicle>
    <vehicle id="592" depart="414.40">
        <route edges="3:1 1:0 0:2 2:8"/>
    </vehicle>
    <vehicle id="595" depart="416.50">
        <route edges="7:3 3:1 1:0 0:9 9:10"/>
    </vehicle>
    <vehicle id="602" depart="421.40">
        <route edges="0:1 1:5 5:6"/>
    </vehicle>
    <vehicle id="603" depart="422.10">
        <route edges="8:2 2:0 0:1 1:3"/>
    </vehicle>
    <vehicle id="605" depart="423.50">
        <route edges="8:2 2:0 0:1 1:5 5:6"/>
    </vehicle>
    <vehicle id="609" depart="426.30">
        <route edges="8:2 2:0 0:1 1:5 5:6"/>
    </vehicle>
    <vehicle id="610" depart="427.00">
        <route edges="7:3 3:1 1:0 0:2 2:8"/>
    </vehicle>
    <vehicle id="612" depart="428.40">
        <route edges="7:3 3:1 1:0"/>
    </vehicle>
    <vehicle id="613" depart="429.10">
        <route edges="6:5 5:1 1:3 3:7"/>
    </vehicle>
    <vehicle id="616" depart="431.20">
        <route edges="1:0 0:2"/>
    </vehicle>
    <vehicle id="617" depart="431.90">
        <route edges="8:2 2:0 0:1 1:3 3:7"/>
    </vehicle>
    <vehicle id="619" depart="433.30">
        <route edges="7:3 3:1 1:0 0:9"/>
    </vehicle>
    <vehicle id="620" depart="434.00">
        <route edges="1:3"/>
    </vehicle>
    <vehicle id="623" depart="436.10">
        <route edges="10:9 9:0 0:2"/>
    </vehicle>
    <vehicle id="624" depart="436.80">
        <route edges="8:2 2:0 0:1"/>
    </vehicle>
    <vehicle id="627" depart="438.90">
        <route edges="8:2 2:0 0:1 1:3 3:7"/>
    </vehicle>
    <vehicle id="632" depart="442.40">
        <route edges="8:2 2:0 0:1 1:3 3:7"/>
    </vehicle>
    <vehicle id="635" depart="444.50">
        <route edges="7:3 3:1 1:0 0:2 2:8"/>
    </vehicle>
    <vehicle id="638" depart="446.60">
        <route edges="7:3 3:1 1:0 0:2"/>
    </vehicle>
    <vehicle id="639" depart="447.30">
        <route edges="2:0"/>
    </vehicle>
    <vehicle id="641" depart="448.70">
        <route edges="8:2 2:0 0:1 1:3"/>
    </vehicle>
    <vehicle id="644" depart="450.80">
        <route edges="7:3 3:1 1:0 0:2 2:8"/>
    </vehicle>
    <vehicle id="645" depart="451.50">
        <route edges="5:1 1:0 0:2 2:8"/>
    </vehicle>
    <vehicle id="646" depart="452.20">
        <route edges="8:2 2:0"/>
    </vehicle>
    <vehicle id="649" depart="454.30">
        <route edges="10:9 9:0 0:1 1:3 3:7"/>
    </vehicle>
    <vehicle id="650" depart="455.00">
        <route edges="7:3 3:1 1:0"/>
    </vehicle>
    <vehicle id="651" depart="455.70">
        <route edges="1:0 0:2 2:8"/>
    </vehicle>
    <vehicle id="653" depart="457.10">
        <route edges="7:3 3:1 1:0"/>
    </vehicle>
    <vehicle id="655" depart="458.50">
        <route edges="3:1 1:0 0:2 2:8"/>
    </vehicle>
    <vehicle id="657" depart="459.90">
        <route edges="5:1 1:3"/>
    </vehicle>
    <vehicle id="658" depart="460.60">
        <route edges="3:1 1:0 0:2 2:8"/>
    </vehicle>
    <vehicle id="661" depart="462.70">
        <route edges="7:3 3:1 1:5"/>
    </vehicle>
    <vehicle id="662" depart="463.40">
        <route edges="2:0 0:9 9:10"/>
    </vehicle>
    <vehicle id="666" depart="466.20">
        <route edges="1:0"/>
    </vehicle>
    <vehicle id="667" depart="466.90">
        <route edges="7:3 3:1 1:0 0:2 2:8"/>
    </vehicle>
    <vehicle id="668" depart="467.60">
        <route edges="6:5 5:1 1:0 0:2"/>
    </vehicle>
    <vehicle id="669" depart="468.30">
        <route edges="7:3 3:1 1:0 0:2"/>
    </vehicle>
    <vehicle id="670" depart="469.00">
        <route edges="8:2 2:0 0:1 1:5 5:6"/>
    </vehicle>
    <vehicle id="672" depart="470.40">
        <route edges="6:5 5:1 1:0 0:2 2:8"/>
    </vehicle>
    <vehicle id="676" depart="473.20">
        <route edges="7:3 3:1"/>
    </vehicle>
    <vehicle id="678" depart="474.60">
        <route edges="3:1 1:0 0:2 2:8"/>
    </vehicle>
    <vehicle id="681" depart="476.70">
        <route edges="0:1 1:3"/>
    </vehicle>
    <vehicle id="683" depart="478.10">
        <route edges="6:5 5:1 1:3 3:7"/>