<?xml version="1.0" encoding="UTF-8"?>

<!-- generated on Thu Feb 13 14:14:17 2014 by SUMO duarouter Version 0.18.0
<?xml version="1.0" encoding="UTF-8"?>

<configuration xmlns:xsi="http://www.w3.org/2001/XMLSchema-instance" xsi:noNamespaceSchemaLocation="http://sumo.sf.net/xsd/duarouterConfiguration.xsd">

    <input>
        <net-file value="twinT.net.xml"/>
        <trip-files value="experimentos/twinT.p0.1.4.trips.xml"/>
    </input>

    <output>
        <output-file value="experimentos/twinT.p0.1.4.rou.xml"/>
    </output>

    <processing>
        <ignore-errors value="true"/>
    </processing>

    <random_number>
        <random value="true"/>
    </random_number>

</configuration>
-->

<routes xmlns:xsi="http://www.w3.org/2001/XMLSchema-instance" xsi:noNamespaceSchemaLocation="http://sumo.sf.net/xsd/routes_file.xsd">
    <vehicle id="1" depart="0.10">
        <route edges="3:1 1:0 0:2 2:8"/>
    </vehicle>
    <vehicle id="2" depart="0.20">
        <route edges="10:9 9:0 0:1 1:5 5:6"/>
    </vehicle>
    <vehicle id="3" depart="0.30">
        <route edges="8:2 2:0"/>
    </vehicle>
    <vehicle id="8" depart="0.80">
        <route edges="6:5 5:1 1:0 0:2"/>
    </vehicle>
    <vehicle id="12" depart="1.20">
        <route edges="6:5 5:1 1:3 3:7"/>
    </vehicle>
    <vehicle id="15" depart="1.50">
        <route edges="8:2 2:0 0:1 1:3 3:7"/>
    </vehicle>
    <vehicle id="18" depart="1.80">
        <route edges="5:1 1:3 3:7"/>
    </vehicle>
    <vehicle id="22" depart="2.20">
        <route edges="7:3 3:1 1:5 5:6"/>
    </vehicle>
    <vehicle id="23" depart="2.30">
        <route edges="5:1 1:3 3:7"/>
    </vehicle>
    <vehicle id="24" depart="2.40">
        <route edges="7:3 3:1 1:0 0:9 9:10"/>
    </vehicle>
    <vehicle id="30" depart="3.00">
        <route edges="2:0 0:9"/>
    </vehicle>
    <vehicle id="31" depart="3.10">
        <route edges="8:2 2:0 0:1 1:3 3:7"/>
    </vehicle>
    <vehicle id="32" depart="3.20">
        <route edges="8:2 2:0 0:1 1:3"/>
    </vehicle>
    <vehicle id="35" depart="3.50">
        <route edges="7:3 3:1 1:0 0:9"/>
    </vehicle>
    <vehicle id="36" depart="3.60">
        <route edges="8:2 2:0 0:1 1:3 3:7"/>
    </vehicle>
    <vehicle id="37" depart="3.70">
        <route edges="2:0 0:9 9:10"/>
    </vehicle>
    <vehicle id="38" depart="3.80">
        <route edges="0:1 1:5 5:6"/>
    </vehicle>
    <vehicle id="41" depart="4.10">
        <route edges="8:2 2:0"/>
    </vehicle>
    <vehicle id="42" depart="4.20">
        <route edges="7:3 3:1 1:0 0:2 2:8"/>
    </vehicle>
    <vehicle id="49" depart="4.90">
        <route edges="8:2 2:0 0:9 9:10"/>
    </vehicle>
    <vehicle id="50" depart="5.00">
        <route edges="8:2 2:0 0:9 9:10"/>
    </vehicle>
    <vehicle id="52" depart="5.20">
        <route edges="10:9 9:0"/>
    </vehicle>
    <vehicle id="54" depart="5.40">
        <route edges="7:3 3:1 1:0 0:2 2:8"/>
    </vehicle>
    <vehicle id="58" depart="5.80">
        <route edges="9:0 0:1 1:5"/>
    </vehicle>
    <vehicle id="63" depart="6.30">
        <route edges="3:1 1:0 0:9"/>
    </vehicle>
    <vehicle id="65" depart="6.50">
        <route edges="8:2 2:0 0:1"/>
    </vehicle>
    <vehicle id="69" depart="6.90">
        <route edges="3:1"/>
    </vehicle>
    <vehicle id="70" depart="7.00">
        <route edges="6:5 5:1 1:3 3:7"/>
    </vehicle>
    <vehicle id="74" depart="7.40">
        <route edges="0:2"/>
    </vehicle>
    <vehicle id="78" depart="7.80">
        <route edges="0:1 1:3 3:7"/>
    </vehicle>
    <vehicle id="79" depart="7.90">
        <route edges="0:2"/>
    </vehicle>
    <vehicle id="81" depart="8.10">
        <route edges="7:3 3:1 1:5 5:6"/>
    </vehicle>
    <vehicle id="82" depart="8.20">
        <route edges="6:5 5:1 1:3"/>
    </vehicle>
    <vehicle id="85" depart="8.50">
        <route edges="8:2 2:0 0:1 1:3 3:7"/>
    </vehicle>
    <vehicle id="86" depart="8.60">
        <route edges="8:2 2:0 0:9"/>
    </vehicle>
    <vehicle id="87" depart="8.70">
        <route edges="9:0 0:2 2:8"/>
    </vehicle>
    <vehicle id="89" depart="8.90">
        <route edges="8:2 2:0 0:1 1:5 5:6"/>
    </vehicle>
    <vehicle id="91" depart="9.10">
        <route edges="1:0 0:9 9:10"/>
    </vehicle>
    <vehicle id="92" depart="9.20">
        <route edges="2:0 0:1 1:3 3:7"/>
    </vehicle>
    <vehicle id="95" depart="9.50">
        <route edges="7:3 3:1"/>
    </vehicle>
    <vehicle id="97" depart="9.70">
        <route edges="8:2 2:0 0:1 1:3 3:7"/>
    </vehicle>
    <vehicle id="98" depart="9.80">
        <route edges="7:3 3:1 1:5"/>
    </vehicle>
    <vehicle id="100" depart="10.00">
        <route edges="8:2 2:0"/>
    </vehicle>
    <vehicle id="101" depart="10.10">
        <route edges="7:3 3:1 1:0 0:9 9:10"/>
    </vehicle>
    <vehicle id="103" depart="10.30">
        <route edges="7:3 3:1 1:0 0:2"/>
    </vehicle>
    <vehicle id="104" depart="10.40">
        <route edges="10:9 9:0 0:2 2:8"/>
    </vehicle>
    <vehicle id="106" depart="10.60">
        <route edges="7:3 3:1 1:0 0:2"/>
    </vehicle>
    <vehicle id="107" depart="10.70">
        <route edges="10:9 9:0 0:2"/>
    </vehicle>
    <vehicle id="109" depart="10.90">
        <route edges="0:1 1:5 5:6"/>
    </vehicle>
    <vehicle id="110" depart="11.00">
        <route edges="8:2 2:0 0:9"/>
    </vehicle>
    <vehicle id="111" depart="11.10">
        <route edges="2:0 0:1"/>
    </vehicle>
    <vehicle id="112" depart="11.20">
        <route edges="9:0 0:2 2:8"/>
    </vehicle>
    <vehicle id="114" depart="11.40">
        <route edges="8:2 2:0 0:9 9:10"/>
    </vehicle>
    <vehicle id="119" depart="11.90">
        <route edges="0:2"/>
    </vehicle>
    <vehicle id="121" depart="12.10">
        <route edges="2:0 0:1 1:3 3:7"/>
    </vehicle>
    <vehicle id="122" depart="12.20">
        <route edges="2:0 0:9 9:10"/>
    </vehicle>
    <vehicle id="125" depart="12.50">
        <route edges="9:0 0:2"/>
    </vehicle>
    <vehicle id="129" depart="12.90">
        <route edges="8:2 2:0 0:1 1:3 3:7"/>
    </vehicle>
    <vehicle id="130" depart="13.00">
        <route edges="10:9 9:0 0:2"/>
    </vehicle>
    <vehicle id="135" depart="13.50">
        <route edges="8:2 2:0 0:1 1:3"/>
    </vehicle>
    <vehicle id="136" depart="13.60">
        <route edges="7:3 3:1 1:0 0:2 2:8"/>
    </vehicle>
    <vehicle id="139" depart="13.90">
        <route edges="1:3 3:7"/>
    </vehicle>
    <vehicle id="140" depart="14.00">
        <route edges="10:9 9:0 0:1 1:3"/>
    </vehicle>
    <vehicle id="145" depart="14.50">
        <route edges="9:0 0:2 2:8"/>
    </vehicle>
    <vehicle id="147" depart="14.70">
        <route edges="2:0"/>
    </vehicle>
    <vehicle id="150" depart="15.00">
        <route edges="7:3 3:1 1:0 0:2"/>
    </vehicle>
    <vehicle id="153" depart="15.30">
        <route edges="8:2 2:0 0:1 1:3 3:7"/>
    </vehicle>
    <vehicle id="155" depart="15.50">
        <route edges="2:0 0:1 1:3 3:7"/>
    </vehicle>
    <vehicle id="156" depart="15.60">
        <route edges="3:1 1:0 0:9 9:10"/>
    </vehicle>
    <vehicle id="159" depart="15.90">
        <route edges="3:1 1:0 0:2 2:8"/>
    </vehicle>
    <vehicle id="160" depart="16.00">
        <route edges="0:2 2:8"/>
    </vehicle>
    <vehicle id="163" depart="16.30">
        <route edges="0:1 1:3"/>
    </vehicle>
    <vehicle id="164" depart="16.40">
        <route edges="5:1 1:3 3:7"/>
    </vehicle>
    <vehicle id="165" depart="16.50">
        <route edges="1:3 3:7"/>
    </vehicle>
    <vehicle id="166" depart="16.60">
        <route edges="8:2 2:0 0:1 1:3"/>
    </vehicle>
    <vehicle id="167" depart="16.70">
        <route edges="6:5 5:1 1:3 3:7"/>
    </vehicle>
    <vehicle id="168" depart="16.80">
        <route edges="7:3 3:1 1:0 0:2 2:8"/>
    </vehicle>
    <vehicle id="169" depart="16.90">
        <route edges="8:2 2:0"/>
    </vehicle>
    <vehicle id="174" depart="17.40">
        <route edges="0:2 2:8"/>
    </vehicle>
    <vehicle id="175" depart="17.50">
        <route edges="5:1 1:0 0:9 9:10"/>
    </vehicle>
    <vehicle id="176" depart="17.60">
        <route edges="8:2 2:0"/>
    </vehicle>
    <vehicle id="178" depart="17.80">
        <route edges="2:0 0:1 1:3 3:7"/>
    </vehicle>
    <vehicle id="180" depart="18.00">
        <route edges="8:2 2:0 0:9"/>
    </vehicle>
    <vehicle id="181" depart="18.10">
        <route edges="3:1 1:5"/>
    </vehicle>
    <vehicle id="183" depart="18.30">
        <route edges="2:0"/>
    </vehicle>
    <vehicle id="188" depart="18.80">
        <route edges="0:1 1:3 3:7"/>
    </vehicle>
    <vehicle id="190" depart="19.00">
        <route edges="8:2 2:0 0:1 1:3 3:7"/>
    </vehicle>
    <vehicle id="191" depart="19.10">
        <route edges="7:3 3:1 1:5 5:6"/>
    </vehicle>
    <vehicle id="194" depart="19.40">
        <route edges="8:2 2:0 0:1"/>
    </vehicle>
    <vehicle id="197" depart="19.70">
        <route edges="3:1 1:0"/>
    </vehicle>
    <vehicle id="202" depart="20.20">
        <route edges="2:0 0:9 9:10"/>
    </vehicle>
    <vehicle id="203" depart="20.30">
        <route edges="5:1 1:3"/>
    </vehicle>
    <vehicle id="204" depart="20.40">
        <route edges="2:0"/>
    </vehicle>
    <vehicle id="206" depart="20.60">
        <route edges="7:3 3:1 1:5 5:6"/>
    </vehicle>
    <vehicle id="209" depart="20.90">
        <route edges="3:1 1:0 0:9"/>
    </vehicle>
    <vehicle id="210" depart="21.00">
        <route edges="0:1 1:3 3:7"/>
    </vehicle>
    <vehicle id="211" depart="21.10">
        <route edges="7:3 3:1 1:0 0:9"/>
    </vehicle>
    <vehicle id="212" depart="21.20">
        <route edges="8:2 2:0 0:1 1:5"/>
    </vehicle>
    <vehicle id="213" depart="21.30">
        <route edges="2:0 0:1 1:3 3:7"/>
    </vehicle>
    <vehicle id="217" depart="21.70">
        <route edges="2:0 0:1 1:3 3:7"/>
    </vehicle>
    <vehicle id="218" depart="21.80">
        <route edges="8:2 2:0 0:1 1:3 3:7"/>
    </vehicle>
    <vehicle id="222" depart="22.20">
        <route edges="7:3 3:1 1:0 0:2"/>
    </vehicle>
    <vehicle id="223" depart="22.30">
        <route edges="9:0 0:1 1:3 3:7"/>
    </vehicle>
    <vehicle id="224" depart="22.40">
        <route edges="9:0 0:2 2:8"/>
    </vehicle>
    <vehicle id="226" depart="22.60">
        <route edges="3:1 1:5"/>
    </vehicle>
    <vehicle id="231" depart="23.10">
        <route edges="9:0"/>
    </vehicle>
    <vehicle id="237" depart="23.70">
        <route edges="6:5 5:1 1:0 0:2"/>
    </vehicle>
    <vehicle id="238" depart="23.80">
        <route edges="10:9 9:0 0:1 1:3 3:7"/>
    </vehicle>
    <vehicle id="240" depart="24.00">
        <route edges="1:3 3:7"/>
    </vehicle>
    <vehicle id="241" depart="24.10">
        <route edges="5:1 1:0 0:9 9:10"/>
    </vehicle>
    <vehicle id="243" depart="24.30">
        <route edges="7:3 3:1"/>
    </vehicle>
    <vehicle id="248" depart="24.80">
        <route edges="5:1 1:0 0:2"/>
    </vehicle>
    <vehicle id="251" depart="25.10">
        <route edges="8:2 2:0 0:1 1:5 5:6"/>
    </vehicle>
    <vehicle id="252" depart="25.20">
        <route edges="1:3 3:7"/>
    </vehicle>
    <vehicle id="254" depart="25.40">
        <route edges="10:9 9:0 0:2 2:8"/>
    </vehicle>
    <vehicle id="255" depart="25.50">
        <route edges="10:9 9:0 0:2 2:8"/>
    </vehicle>
    <vehicle id="259" depart="25.90">
        <route edges="9:0 0:2 2:8"/>
    </vehicle>
    <vehicle id="264" depart="26.40">
        <route edges="8:2 2:0 0:1 1:5 5:6"/>
    </vehicle>
    <vehicle id="271" depart="27.10">
        <route edges="8:2 2:0 0:1 1:5"/>
    </vehicle>
    <vehicle id="272" depart="27.20">
        <route edges="6:5 5:1 1:0 0:2"/>
    </vehicle>
    <vehicle id="273" depart="27.30">
        <route edges="10:9 9:0 0:2 2:8"/>
    </vehicle>
    <vehicle id="274" depart="27.40">
        <route edges="7:3 3:1 1:0 0:9"/>
    </vehicle>
    <vehicle id="277" depart="27.70">
        <route edges="8:2 2:0"/>
    </vehicle>
    <vehicle id="278" depart="27.80">
        <route edges="10:9 9:0 0:1 1:3 3:7"/>
    </vehicle>
    <vehicle id="281" depart="28.10">
        <route edges="6:5 5:1 1:0 0:2 2:8"/>
    </vehicle>
    <vehicle id="282" depart="28.20">
        <route edges="6:5 5:1 1:0 0:9 9:10"/>
    </vehicle>
    <vehicle id="284" depart="28.40">
        <route edges="1:3 3:7"/>
    </vehicle>
    <vehicle id="285" depart="28.50">
        <route edges="7:3 3:1 1:0"/>
    </vehicle>
    <vehicle id="288" depart="28.80">
        <route edges="7:3 3:1 1:0 0:9"/>
    </vehicle>
    <vehicle id="289" depart="28.90">
        <route edges="8:2 2:0 0:1 1:5 5:6"/>
    </vehicle>
    <vehicle id="290" depart="29.00">
        <route edges="1:0 0:2 2:8"/>
    </vehicle>
    <vehicle id="291" depart="29.10">
        <route edges="9:0"/>
    </vehicle>
    <vehicle id="292" depart="29.20">
        <route edges="3:1"/>
    </vehicle>
    <vehicle id="295" depart="29.50">
        <route edges="7:3 3:1 1:0 0:2 2:8"/>
    </vehicle>
    <vehicle id="296" depart="29.60">
        <route edges="7:3 3:1 1:0 0:2 2:8"/>
    </vehicle>
    <vehicle id="297" depart="29.70">
        <route edges="0:2 2:8"/>
    </vehicle>
    <vehicle id="301" depart="30.10">
        <route edges="6:5 5:1 1:0"/>
    </vehicle>
    <vehicle id="302" depart="30.20">
        <route edges="5:1 1:0 0:2 2:8"/>
    </vehicle>
    <vehicle id="303" depart="30.30">
        <route edges="8:2 2:0 0:1 1:3"/>
    </vehicle>
    <vehicle id="304" depart="30.40">
        <route edges="6:5 5:1 1:0"/>
    </vehicle>
    <vehicle id="309" depart="30.90">
        <route edges="7:3 3:1"/>
    </vehicle>
    <vehicle id="310" depart="31.00">
        <route edges="8:2 2:0 0:1 1:3 3:7"/>
    </vehicle>
    <vehicle id="311" depart="31.10">
        <route edges="0:1 1:3 3:7"/>
    </vehicle>
    <vehicle id="313" depart="31.30">
        <route edges="6:5 5:1 1:3 3:7"/>
    </vehicle>
    <vehicle id="317" depart="31.70">
        <route edges="1:0 0:2 2:8"/>
    </vehicle>
    <vehicle id="322" depart="32.20">
        <route edges="8:2 2:0 0:1 1:3 3:7"/>
    </vehicle>
    <vehicle id="326" depart="32.60">
        <route edges="8:2 2:0 0:1 1:3 3:7"/>
    </vehicle>
    <vehicle id="327" depart="32.70">
        <route edges="0:1"/>
    </vehicle>
    <vehicle id="332" depart="33.20">
        <route edges="8:2 2:0 0:1 1:3"/>
    </vehicle>
    <vehicle id="336" depart="33.60">
        <route edges="9:0"/>
    </vehicle>
    <vehicle id="341" depart="34.10">
        <route edges="1:0 0:2 2:8"/>
    </vehicle>
    <vehicle id="342" depart="34.20">
        <route edges="2:0 0:1 1:3"/>
    </vehicle>
    <vehicle id="346" depart="34.60">
        <route edges="7:3 3:1 1:5"/>
    </vehicle>
    <vehicle id="354" depart="35.40">
        <route edges="10:9 9:0 0:1 1:3"/>
    </vehicle>
    <vehicle id="356" depart="35.60">
        <route edges="3:1 1:0 0:2 2:8"/>
    </vehicle>
    <vehicle id="357" depart="35.70">
        <route edges="6:5 5:1 1:0 0:9"/>
    </vehicle>
    <vehicle id="359" depart="35.90">
        <route edges="10:9 9:0 0:1 1:3"/>
    </vehicle>
    <vehicle id="361" depart="36.10">
        <route edges="7:3 3:1 1:0 0:2"/>
    </vehicle>
    <vehicle id="365" depart="36.50">
        <route edges="7:3 3:1 1:0 0:9 9:10"/>
    </vehicle>
    <vehicle id="373" depart="37.30">
        <route edges="8:2 2:0 0:1 1:3 3:7"/>
    </vehicle>
    <vehicle id="374" depart="37.40">
        <route edges="9:0 0:2 2:8"/>
    </vehicle>
    <vehicle id="375" depart="37.50">
        <route edges="7:3 3:1 1:5 5:6"/>
    </vehicle>
    <vehicle id="376" depart="37.60">
        <route edges="9:0 0:2"/>
    </vehicle>
    <vehicle id="378" depart="37.80">
        <route edges="6:5 5:1 1:0 0:2 2:8"/>
    </vehicle>
    <vehicle id="379" depart="37.90">
        <route edges="7:3 3:1 1:0 0:2 2:8"/>
    </vehicle>
    <vehicle id="380" depart="38.00">
        <route edges="0:2 2:8"/>
    </vehicle>
    <vehicle id="381" depart="38.10">
        <route edges="1:3"/>
    </vehicle>
    <vehicle id="383" depart="38.30">
        <route edges="6:5 5:1 1:3 3:7"/>
    </vehicle>
    <vehicle id="387" depart="38.70">
        <route edges="6:5 5:1 1:3 3:7"/>
    </vehicle>
    <vehicle id="388" depart="38.80">
        <route edges="0:1 1:3 3:7"/>
    </vehicle>
    <vehicle id="389" depart="38.90">
        <route edges="1:3 3:7"/>
    </vehicle>
    <vehicle id="393" depart="39.30">
        <route edges="2:0 0:1 1:3 3:7"/>
    </vehicle>
    <vehicle id="397" depart="39.70">
        <route edges="2:0 0:1 1:3"/>
    </vehicle>
    <vehicle id="399" depart="39.90">
        <route edges="0:1 1:3"/>
    </vehicle>
    <vehicle id="401" depart="40.10">
        <route edges="0:1 1:5"/>
    </vehicle>
    <vehicle id="406" depart="40.60">
        <route edges="7:3 3:1 1:0 0:9 9:10"/>
    </vehicle>
    <vehicle id="407" depart="40.70">
        <route edges="2:0 0:1 1:5 5:6"/>
    </vehicle>
    <vehicle id="409" depart="40.90">
        <route edges="0:2"/>
    </vehicle>
    <vehicle id="410" depart="41.00">
        <route edges="5:1 1:0 0:2 2:8"/>
    </vehicle>
    <vehicle id="411" depart="41.10">
        <route edges="0:2"/>
    </vehicle>
    <vehicle id="412" depart="41.20">
        <route edges="8:2 2:0 0:1 1:3"/>
    </vehicle>
    <vehicle id="414" depart="41.40">
        <route edges="6:5 5:1 1:0 0:2 2:8"/>
    </vehicle>
    <vehicle id="416" depart="41.60">
        <route edges="5:1 1:0 0:2"/>
    </vehicle>
    <vehicle id="417" depart="41.70">
        <route edges="7:3 3:1 1:5"/>
    </vehicle>
    <vehicle id="419" depart="41.90">
        <route edges="9:0 0:2 2:8"/>
    </vehicle>
    <vehicle id="420" depart="42.00">
        <route edges="8:2 2:0 0:9"/>
    </vehicle>
    <vehicle id="422" depart="42.20">
        <route edges="7:3 3:1"/>
    </vehicle>
    <vehicle id="425" depart="42.50">
        <route edges="7:3 3:1 1:0 0:2 2:8"/>
    </vehicle>
    <vehicle id="427" depart="42.70">
        <route edges="6:5 5:1 1:0 0:9 9:10"/>
    </vehicle>
    <vehicle id="432" depart="43.20">
        <route edges="7:3 3:1 1:0 0:2 2:8"/>
    </vehicle>
    <vehicle id="434" depart="43.40">
        <route edges="7:3 3:1 1:0 0:2"/>
    </vehicle>
    <vehicle id="437" depart="43.70">
        <route edges="7:3 3:1 1:0 0:2"/>
    </vehicle>
    <vehicle id="438" depart="43.80">
        <route edges="7:3 3:1 1:0"/>
    </vehicle>
    <vehicle id="440" depart="44.00">
        <route edges="8:2 2:0 0:1 1:5 5:6"/>
    </vehicle>
    <vehicle id="441" depart="44.10">
        <route edges="6:5 5:1 1:0 0:9 9:10"/>
    </vehicle>
    <vehicle id="443" depart="44.30">
        <route edges="6:5 5:1 1:3 3:7"/>
    </vehicle>
    <vehicle id="448" depart="44.80">
        <route edges="2:0"/>
    </vehicle>
    <vehicle id="452" depart="45.20">
        <route edges="8:2 2:0 0:1 1:5 5:6"/>
    </vehicle>
    <vehicle id="457" depart="45.70">
        <route edges="7:3 3:1 1:5 5:6"/>
    </vehicle>
    <vehicle id="459" depart="45.90">
        <route edges="8:2 2:0 0:1 1:3"/>
    </vehicle>
    <vehicle id="460" depart="46.00">
        <route edges="7:3 3:1 1:0 0:2 2:8"/>
    </vehicle>
    <vehicle id="463" depart="46.30">
        <route edges="7:3 3:1 1:0 0:2"/>
    </vehicle>
    <vehicle id="464" depart="46.40">
        <route edges="8:2 2:0 0:1 1:3"/>
    </vehicle>
    <vehicle id="467" depart="46.70">
        <route edges="10:9 9:0 0:1 1:5 5:6"/>
    </vehicle>
    <vehicle id="472" depart="47.20">
        <route edges="8:2 2:0 0:9 9:10"/>
    </vehicle>
    <vehicle id="473" depart="47.30">
        <route edges="10:9 9:0 0:1 1:3"/>
    </vehicle>
    <vehicle id="474" depart="47.40">
        <route edges="0:2"/>
    </vehicle>
    <vehicle id="477" depart="47.70">
        <route edges="7:3 3:1 1:0 0:2 2:8"/>
    </vehicle>
    <vehicle id="479" depart="47.90">
        <route edges="6:5 5:1 1:0 0:2 2:8"/>
    </vehicle>
    <vehicle id="481" depart="48.10">
        <route edges="8:2 2:0"/>
    </vehicle>
    <vehicle id="484" depart="48.40">
        <route edges="3:1 1:0 0:9 9:10"/>
    </vehicle>
    <vehicle id="486" depart="48.60">
        <route edges="7:3 3:1 1:0 0:2 2:8"/>
    </vehicle>
    <vehicle id="487" depart="48.70">
        <route edges="10:9 9:0 0:2"/>
    </vehicle>
    <vehicle id="488" depart="48.80">
        <route edges="8:2 2:0 0:9 9:10"/>
    </vehicle>
    <vehicle id="489" depart="48.90">
        <route edges="8:2 2:0 0:1 1:3"/>
    </vehicle>
    <vehicle id="492" depart="49.20">
        <route edges="3:1 1:0 0:2 2:8"/>
    </vehicle>
    <vehicle id="494" depart="49.40">
        <route edges="0:9"/>
    </vehicle>
    <vehicle id="497" depart="49.70">
        <route edges="8:2 2:0 0:1 1:3"/>
    </vehicle>
    <vehicle id="498" depart="49.80">
        <route edges="7:3 3:1 1:0 0:2"/>
    </vehicle>
    <vehicle id="499" depart="49.90">
        <route edges="2:0 0:1 1:3 3:7"/>
    </vehicle>
    <vehicle id="500" depart="50.00">
        <route edges="10:9 9:0 0:1 1:3"/>
    </vehicle>
    <vehicle id="501" depart="50.10">
        <route edges="0:2 2:8"/>
    </vehicle>
    <vehicle id="503" depart="50.30">
        <route edges="0:9 9:10"/>
    </vehicle>
    <vehicle id="504" depart="50.40">
        <route edges="0:2"/>
    </vehicle>
    <vehicle id="505" depart="50.50">
        <route edges="2:0"/>
    </vehicle>
    <vehicle id="506" depart="50.60">
        <route edges="6:5 5:1 1:0 0:9"/>
    </vehicle>
    <vehicle id="508" depart="50.80">
        <route edges="5:1 1:0 0:2 2:8"/>
    </vehicle>
    <vehicle id="509" depart="50.90">
        <route edges="9:0 0:2 2:8"/>
    </vehicle>
    <vehicle id="511" depart="51.10">
        <route edges="0:1 1:3 3:7"/>
    </vehicle>
    <vehicle id="513" depart="51.30">
        <route edges="1:3"/>
    </vehicle>
    <vehicle id="517" depart="51.70">
        <route edges="0:2"/>
    </vehicle>
    <vehicle id="520" depart="52.00">
        <route edges="5:1 1:0 0:2 2:8"/>
    </vehicle>
    <vehicle id="522" depart="52.20">
        <route edges="2:0 0:9 9:10"/>
    </vehicle>
    <vehicle id="523" depart="52.30">
        <route edges="9:0 0:1 1:3"/>
    </vehicle>
    <vehicle id="527" depart="52.70">
        <route edges="10:9 9:0 0:2 2:8"/>
    </vehicle>
    <vehicle id="529" depart="52.90">
        <route edges="6:5 5:1 1:0 0:2 2:8"/>
    </vehicle>
    <vehicle id="530" depart="53.00">
        <route edges="10:9 9:0 0:2 2:8"/>
    </vehicle>
    <vehicle id="531" depart="53.10">
        <route edges="10:9 9:0 0:2 2:8"/>
    </vehicle>
    <vehicle id="532" depart="53.20">
        <route edges="8:2 2:0 0:1 1:5 5:6"/>
    </vehicle>
    <vehicle id="533" depart="53.30">
        <route edges="3:1 1:5"/>
    </vehicle>
    <vehicle id="535" depart="53.50">
        <route edges="3:1"/>
    </vehicle>
    <vehicle id="536" depart="53.60">
        <route edges="8:2 2:0 0:1 1:5"/>
    </vehicle>
    <vehicle id="537" depart="53.70">
        <route edges="9:0 0:1 1:3"/>
    </vehicle>
    <vehicle id="539" depart="53.90">
        <route edges="9:0 0:2 2:8"/>
    </vehicle>
    <vehicle id="540" depart="54.00">
        <route edges="5:1 1:0 0:2 2:8"/>
    </vehicle>
    <vehicle id="541" depart="54.10">
        <route edges="2:0 0:1"/>
    </vehicle>
    <vehicle id="542" depart="54.20">
        <route edges="6:5 5:1 1:3"/>
    </vehicle>
    <vehicle id="543" depart="54.30">
        <route edges="5:1 1:0 0:2 2:8"/>
    </vehicle>
    <vehicle id="544" depart="54.40">
        <route edges="6:5 5:1 1:0 0:9 9:10"/>
    </vehicle>
    <vehicle id="549" depart="54.90">
        <route edges="3:1"/>
    </vehicle>
    <vehicle id="550" depart="55.00">
        <route edges="6:5 5:1 1:3 3:7"/>
    </vehicle>
    <vehicle id="551" depart="55.10">
        <route edges="7:3 3:1 1:0 0:2 2:8"/>
    </vehicle>
    <vehicle id="553" depart="55.30">
        <route edges="3:1"/>
    </vehicle>
    <vehicle id="556" depart="55.60">
        <route edges="10:9 9:0 0:2 2:8"/>
    </vehicle>
    <vehicle id="559" depart="55.90">
        <route edges="1:3 3:7"/>
    </vehicle>
    <vehicle id="560" depart="56.00">
        <route edges="6:5 5:1 1:0 0:2 2:8"/>
    </vehicle>
    <vehicle id="565" depart="56.50">
        <route edges="5:1 1:3"/>
    </vehicle>
    <vehicle id="566" depart="56.60">
        <route edges="6:5 5:1 1:3"/>
    </vehicle>
    <vehicle id="567" depart="56.70">
        <route edges="2:0 0:1 1:3 3:7"/>
    </vehicle>
    <vehicle id="569" depart="56.90">
        <route edges="1:0 0:2 2:8"/>
    </vehicle>
    <vehicle id="571" depart="57.10">
        <route edges="7:3 3:1 1:0 0:2"/>
    </vehicle>
    <vehicle id="574" depart="57.40">
        <route edges="8:2 2:0 0:1 1:5 5:6"/>
    </vehicle>
    <vehicle id="575" depart="57.50">
        <route edges="8:2 2:0 0:1 1:5 5:6"/>
    </vehicle>
    <vehicle id="576" depart="57.60">
        <route edges="6:5 5:1 1:0 0:2 2:8"/>
    </vehicle>
    <vehicle id="577" depart="57.70">
        <route edges="0:1 1:3 3:7"/>
    </vehicle>
    <vehicle id="582" depart="58.20">
        <route edges="8:2 2:0 0:9 9:10"/>
    </vehicle>
    <vehicle id="584" depart="58.40">
        <route edges="7:3 3:1 1:0 0:2 2:8"/>
    </vehicle>
    <vehicle id="585" depart="58.50">
        <route edges="2:0 0:1 1:5 5:6"/>
    </vehicle>
    <vehicle id="586" depart="58.60">
        <route edges="8:2 2:0 0:1 1:5 5:6"/>
    </vehicle>
    <vehicle id="587" depart="58.70">
        <route edges="8:2 2:0 0:1 1:3 3:7"/>
    </vehicle>
    <vehicle id="588" depart="58.80">
        <route edges="10:9 9:0"/>
    </vehicle>
    <vehicle id="589" depart="58.90">
        <route edges="2:0 0:1 1:3 3:7"/>
    </vehicle>
    <vehicle id="591" depart="59.10">
        <route edges="7:3 3:1 1:0 0:2 2:8"/>
    </vehicle>
    <vehicle id="593" depart="59.30">
        <route edges="7:3 3:1"/>
    </vehicle>
    <vehicle id="596" depart="59.60">
        <route edges="7:3 3:1 1:0 0:9"/>
    </vehicle>
    <vehicle id="598" depart="59.80">
        <route edges="2:0 0:1 1:3 3:7"/>
    </vehicle>
    <vehicle id="601" depart="60.10">
        <route edges="10:9 9:0 0:2 2:8"/>
    </vehicle>
    <vehicle id="602" depart="60.20">
        <route edges="5:1 1:3"/>
    </vehicle>
    <vehicle id="612" depart="61.20">
        <route edges="8:2 2:0"/>
    </vehicle>
    <vehicle id="616" depart="61.60">
        <route edges="7:3 3:1"/>
    </vehicle>
    <vehicle id="620" depart="62.00">
        <route edges="0:2 2:8"/>
    </vehicle>
    <vehicle id="621" depart="62.10">
        <route edges="7:3 3:1"/>
    </vehicle>
    <vehicle id="622" depart="62.20">
        <route edges="2:0 0:1 1:3 3:7"/>
    </vehicle>
    <vehicle id="624" depart="62.40">
        <route edges="3:1 1:5 5:6"/>
    </vehicle>
    <vehicle id="627" depart="62.70">
        <route edges="8:2 2:0"/>
    </vehicle>
    <vehicle id="628" depart="62.80">
        <route edges="8:2 2:0 0:9 9:10"/>
    </vehicle>
    <vehicle id="629" depart="62.90">
        <route edges="7:3 3:1 1:0 0:9 9:10"/>
    </vehicle>
    <vehicle id="633" depart="63.30">
        <route edges="6:5 5:1 1:0 0:9"/>
    </vehicle>
    <vehicle id="635" depart="63.50">
        <route edges="1:0"/>
    </vehicle>
    <vehicle id="637" depart="63.70">
        <route edges="3:1 1:5 5:6"/>
    </vehicle>
    <vehicle id="641" depart="64.10">
        <route edges="5:1 1:0 0:9 9:10"/>
    </vehicle>
    <vehicle id="645" depart="64.50">
        <route edges="7:3 3:1 1:0 0:2"/>
    </vehicle>
    <vehicle id="648" depart="64.80">
        <route edges="0:1 1:5 5:6"/>
    </vehicle>
    <vehicle id="649" depart="64.90">
        <route edges="3:1 1:0 0:9 9:10"/>
    </vehicle>
    <vehicle id="651" depart="65.10">
        <route edges="1:0 0:2 2:8"/>
    </vehicle>
    <vehicle id="652" depart="65.20">
        <route edges="10:9 9:0 0:1 1:3"/>
    </vehicle>
    <vehicle id="653" depart="65.30">
        <route edges="7:3 3:1 1:0 0:9 9:10"/>
    </vehicle>
    <vehicle id="654" depart="65.40">
        <route edges="3:1 1:0 0:2 2:8"/>
    </vehicle>
    <vehicle id="655" depart="65.50">
        <route edges="1:3 3:7"/>
    </vehicle>
    <vehicle id="656" depart="65.60">
        <route edges="0:1 1:5 5:6"/>
    </vehicle>
    <vehicle id="657" depart="65.70">
        <route edges="1:3 3:7"/>
    </vehicle>
    <vehicle id="660" depart="66.00">
        <route edges="8:2 2:0 0:1 1:5"/>
    </vehicle>
    <vehicle id="663" depart="66.30">
        <route edges="7:3 3:1 1:0 0:2 2:8"/>
    </vehicle>
    <vehicle id="664" depart="66.40">
        <route edges="7:3 3:1 1:0 0:2"/>
    </vehicle>
    <vehicle id="666" depart="66.60">
        <route edges="7:3 3:1 1:0 0:2 2:8"/>
    </vehicle>
    <vehicle id="668" depart="66.80">
        <route edges="1:0 0:2 2:8"/>
    </vehicle>
    <vehicle id="672" depart="67.20">
        <route edges="6:5 5:1 1:0 0:2 2:8"/>
    </vehicle>
    <vehicle id="675" depart="67.50">
        <route edges="2:0 0:9 9:10"/>
    </vehicle>
    <vehicle id="677" depart="67.70">
        <route edges="1:3 3:7"/>
    </vehicle>
    <vehicle id="680" depart="68.00">
        <route edges="0:2"/>
    </vehicle>
    <vehicle id="681" depart="68.10">
        <route edges="8:2 2:0 0:1 1:5 5:6"/>
    </vehicle>
    <vehicle id="682" depart="68.20">
        <route edges="6:5 5:1 1:3 3:7"/>
    </vehicle>
    <vehicle id="685" depart="68.50">
        <route edges="5:1 1:0 0:2"/>
    </vehicle>
    <vehicle id="686" depart="68.60">
        <route edges="5:1 1:3"/>
    </vehicle>
    <vehicle id="687" depart="68.70">
        <route edges="10:9 9:0 0:1 1:3"/>
    </vehicle>
    <vehicle id="689" depart="68.90">
        <route edges="10:9 9:0 0:2"/>
    </vehicle>
    <vehicle id="690" depart="69.00">
        <route edges="2:0 0:1 1:3"/>
    </vehicle>
    <vehicle id="693" depart="69.30">
        <route edges="3:1 1:0 0:9 9:10"/>
    </vehicle>
    <vehicle id="694" depart="69.40">