<?xml version="1.0" encoding="UTF-8"?>

<!-- generated on Thu Mar 20 11:58:35 2014 by SUMO duarouter Version 0.18.0
<?xml version="1.0" encoding="UTF-8"?>

<configuration xmlns:xsi="http://www.w3.org/2001/XMLSchema-instance" xsi:noNamespaceSchemaLocation="http://sumo.sf.net/xsd/duarouterConfiguration.xsd">

    <input>
        <net-file value="centroCampinas.net.xml"/>
        <trip-files value="experimentos/centroCampinas.p0.7.10.trips.xml"/>
    </input>

    <output>
        <output-file value="experimentos/centroCampinas.p0.7.10.rou.xml"/>
    </output>

    <processing>
        <ignore-errors value="true"/>
    </processing>

    <random_number>
        <random value="true"/>
    </random_number>

</configuration>
-->

<routes xmlns:xsi="http://www.w3.org/2001/XMLSchema-instance" xsi:noNamespaceSchemaLocation="http://sumo.sf.net/xsd/routes_file.xsd">
    <vehicle id="0" depart="0.00">
        <route edges="92944494#2 148395800#0 148395800#1 148395800#2 -148397339#1 148395347#0 92735610#1 92944558#1 92944558#2 -90053221#1 -90053221#0 -90059932#3 -90059932#2 -90053214 90051631#4 90053216 89756024#1 89756024#2 151375646#0 151375646#1 151375646#2 151375646#3 151375646#4"/>
    </vehicle>
    <vehicle id="1" depart="0.70">
        <route edges="89905634#8 148394064#1 148394064#2 148394064#3 89905653#3 89905653#2 90064603#2 90064603#3 90064603#4 90064603#5 90064603#6 90064603#7 90064603#8 151380694 151380695 151380683#13 151380683#14 151380683#15 151380683#16 151666889#0 151375663#2 151375663#3 151375663#4"/>
    </vehicle>
    <vehicle id="2" depart="1.40">
        <route edges="148751524#2 -91934729#3 -91934729#2 91934730#0 91934730#1 -91934726#4 -91934726#3 -91934726#2 -91934726#1 -91934726#0 -91929306#3 148617424#5 91929318#0 91929318#1 91929357#7 91929357#8 91929357#0 129281421#0 129281421#1 -148007427#4 -148007427#3 91312489#0 91312489#0-AddedOffRampEdge 91312489#1 91312489#2 91312489#3 91312489#4 91312489#5 149016812#1 149016812#2 161486226#1 161486226#2 161486226#3 -148394065#1 -148394065#0 147935481#11 147935481#12 147935481#13 90941221#0 90941230#0 90941230#1 90941230#2 90941230#3 148394063#0 148394063#1 148394063#2 148394063#3 148394063#4 148394063#5 148394063#6 148394063#7 148394063#8 148394063#9 148394063#10 148394063#11 148394063#12 92966476#0 92966476#1 92966476#2 -98626993#3 -98626993#2 98635681#0 98635681#1 -148335544#1 -148335544#0"/>
    </vehicle>
    <vehicle id="3" depart="2.10">
        <route edges="89709726#3 -89709721#0 89709720#6 -89709718#0 -158415916#3 -158415916#2 200662752 156672358#4 156672358#5 156672358#6 156672358#7 89756022#3 89756022#2 89756022#1 89756022#0 183092106#0 183092106#1 183092106#2 183092106#3 183092106#4 183092106#5 183092106#6 183092106#7 154548820#1 46249914#1 46249914#2 46249914#3 46249914#4 91312492 151375660 151375661#0 151375661#1 151375661#2 151375661#3"/>
    </vehicle>
    <vehicle id="4" depart="2.80">
        <route edges="148394927#2 90941257#2 90941221#2 90941221#3 89905653#5 89905653#4 89905653#3 89905653#2 89905653#1 89905653#0 89905636#0 89905636#1 89905636#2 89905638#0 89905638#1 159116088#5 159116088#6"/>
    </vehicle>
    <vehicle id="5" depart="3.50">
        <route edges="151375664#0 -158415916#4 89709718#0 89709720#7 89709720#8 89709720#9 89709720#10 89709720#11"/>
    </vehicle>
    <vehicle id="6" depart="4.20">
        <route edges="155015126#14 89760193#5 89760193#4 89756026#2 148715527#5 148715527#6 148715527#7 89760184 46629407#0-AddedOnRampEdge 46629407#0 46629407#1 91584594#0 91584594#1 151375606 151375605#0 151375605#1"/>
    </vehicle>
    <vehicle id="7" depart="4.90">
        <route edges="91923626#0 91923626#1 -148130972#2 -148130972#1 -148130972#0 -91923620#2 -91923620#1 -91923620#0 161487672#5 -148007432#4 -148007432#3 151380684#11 151380684#12 151380684#13 151380684#14"/>
    </vehicle>
    <vehicle id="8" depart="5.60">
        <route edges="149033006 149030104#1 149030104#2 149030104#3 149030104#4 149030104#5 46049068#0 46049068#1 151375596 151375595#0 151375595#1 151375595#2 89763483 89760177#0 89760177#1 89760177#2 89760177#3 89760177#4 89760177#5 89760177#6 183092106#0 183092106#1 183092106#2 183092106#3 183092106#4 141844770#3 141844770#4 141844770#5 141844770#6 159116088#0 159116088#1 159116088#2 159116088#3 159116088#4 159116088#5 159116088#6 159116088#7-AddedOnRampEdge 159116088#7 159116088#8 147935513#4 147935513#4-AddedOffRampEdge 147935513#5 89905650#0 89905650#1 89905650#2 89905650#3 89905650#4 89905650#5-AddedOnRampEdge 89905650#5 89905650#6 89905650#7 89905650#8 89905650#9 89905634#8 148394927#0 -148394926#0 90941254 -90941253#4 90941256#0 90941256#1 90941256#2 -90941218 148395351#5 -90941222#0 -90941256#0"/>
    </vehicle>
    <vehicle id="9" depart="6.30">
        <route edges="151375664#0 151375664#1 151375664#2 151375675#0 151375675#1 151375675#2 151375675#3 151375675#4 90051626#0 90051626#1 150431351#3 46050351#0 46050351#1 46050351#2 46050351#3 46050351#4 46050351#5 148395353#0 148395353#1 148395353#2 148395353#3"/>
    </vehicle>
    <vehicle id="10" depart="7.00">
        <route edges="89709726#0 -89754564#1 -89754564#0 158415916#1 200662752 156672358#4 156672358#5 156672358#6 156672358#7 89756022#3 89756022#2 89756022#1 89756022#0 183092106#0 183092106#1 183092106#2 183092106#3 183092106#4 183092106#5 183092106#6 155015126#5 155015126#6 155015126#7 155015126#8 155015126#9 155015126#10 155015126#11 155015126#12 155015126#13 155015126#14 155015126#15 155015126#16 155015126#17 46053226#4 46053226#5 46053226#6 46053226#7 46053226#8 46053226#9 46053226#10 91585315#0 91585315#1 91585315#2 -158415911 158415912#0 158415912#1 151666871#1"/>
    </vehicle>
    <vehicle id="11" depart="7.70">
        <route edges="149033006 149030104#1 149030104#2 149030104#3 149030104#4 149030104#5 46049068#0 46049068#1 151375596 151375595#0 151375595#1 151375595#2 89763483 89760177#0 89760177#1 89760177#2 89760177#3 89760177#4 89760177#5 89760177#6 183092106#0 183092106#1 183092106#2 183092106#3 183092106#4 141844770#3 141844770#4 141844770#5 141844770#6 159116088#0 159116088#1 159116088#2 159116088#3 159116088#4 159116088#5 159116088#6 159116088#7-AddedOnRampEdge 159116088#7 159116088#8 159116088#9 147935451#2 155016566 147935481#1 147935481#2 90064603#8 151380694 151380695 46178146#0 46178146#1 46178146#2 46178146#3 46178146#4 46178146#5 46178146#6 91929357#0 129281421#0 129281421#1 -148007427#4 -148007427#3 -148007427#2 -148007427#1 161486227#2 161486227#3 161486227#4"/>
    </vehicle>
    <vehicle id="12" depart="8.40">
        <route edges="148645650#0 92735621#0 92735613#1 92735613#2 92735599#1 -92944528 -92944486#1 46050351#2 46050351#3 46050351#4 46050351#5 148395353#0 148395353#1 148395353#2 148395353#3 148133831#0 151380698#0 151380698#1 148133831#2"/>
    </vehicle>
    <vehicle id="13" depart="9.10">
        <route edges="200662751#2 200662751#3 159116088#0 159116088#1 155015126#0 155015126#1 155015126#2 155015126#3 155015126#4 155015126#5 155015126#6 155015126#7 155015126#8 155015126#9 155015126#10 155015126#11 155015126#12 155015126#13 155015126#14 155015126#15 155015126#16 155015126#17 155015126#18 155015126#19 89760181#6 151299782#1 151299787 151299778#1-AddedOnRampEdge 151299778#1"/>
    </vehicle>
    <vehicle id="14" depart="9.80">
        <route edges="148395353#3 -98626993#0 89693142#2 -92966476#0 -148394063#12 -148394063#11 -148394063#10 -148394063#9 -148394063#8 -148394063#7 -148394063#6 -148394063#5 -148394063#4 -148394063#3 -148394063#2 -148394063#1 -148394063#0 -90941230#3 -90941230#2 -90941230#1 89905646 161487680 151380683#1 151380683#2 91312498 161487670#3 161487670#4 161487670#5 -161487672#6 -148007432#4 -148007432#3 151380684#11 151380684#12 151380684#13 151380684#14"/>
    </vehicle>
    <vehicle id="15" depart="10.50">
        <route edges="161486233#0 161486233#1 161486233#2 148007420#0 148007420#1 148007420#2 148007420#3 148007420#4 148007420#5 148007420#6 148007420#7 148007420#8 148007420#9 148007420#10 148641830#4 148641830#5 147935444#0 147935444#1 147935444#2 91312495#4 91312475#2"/>
    </vehicle>
    <vehicle id="16" depart="11.20">
        <route edges="-91934718#1 91929327#2 91929327#3 91929327#4 91929327#5 91929327#6 91934729#6 -92038085#2 -92038085#1 -92038109#1 -92038109#0 -46249918#3 -46249918#2 -89763493#2 -89763493#1 -89763493#0 91935528#3 -158415924#1 -158415924#0 -158415911 158415912#0 158415912#1 158415928 89760181#0 89760181#1 89762713#3 89762713#4 89761286"/>
    </vehicle>
    <vehicle id="17" depart="11.90">
        <route edges="147935481#13 90941221#0 90941230#0 161487673#0 161487673#1 161487673#2 161487673#3 161487673#4 161487673#5 161487673#6 161487673#7 161487673#8 161487673#9 161487673#10 89905626#0 89905626#1 89905626#2 89905626#3 90053205#0 90053205#0-AddedOffRampEdge 90053205#1 90053205#2 89756024#0 89756024#1 89756024#2 151375646#0 151375604#17 151375604#18 89693151 89693163#0 89693163#1"/>
    </vehicle>
    <vehicle id="18" depart="12.60">
        <route edges="158415910#0 89760157#0 89760469#1 89760469#2 89760469#3 89756026#1 89756026#2 89756026#3 89756026#4 89756026#5 89756026#6 141844793#9 141844770#0 141844770#1 141844770#2 141844770#3 141844770#4 141844770#5 141844770#6 159116088#0 159116088#1 159116088#2 159116088#3 159116088#4 159116088#5 159116088#6 159116088#7-AddedOnRampEdge 159116088#7 159116088#8 147935513#4 147935513#4-AddedOffRampEdge 147935513#5 89905650#0 89905650#1 89905650#2 89905650#3 89905650#4 89905650#5-AddedOnRampEdge 89905650#5 89905650#6 89905650#7 89905650#8 89905650#9 89905634#8 148394927#0 148394927#1 148394927#2 90941257#2"/>
    </vehicle>
    <vehicle id="19" depart="13.30">
        <route edges="141844793#8 141844793#9 141844770#0 141844770#1 141844770#2 141844770#3 141844770#4 141844770#5 141844770#6 159116088#0 159116088#1 159116088#2 159116088#3 159116088#4 159116088#5 159116088#6 159116088#7-AddedOnRampEdge 159116088#7 159116088#8 147935513#4 147935513#4-AddedOffRampEdge 147935513#5 89905650#0 89905650#1 89905650#2 89905650#3 89905650#4 89905650#5-AddedOnRampEdge 89905650#5 89905650#6 89905650#7 89905650#8 89905650#9 89905650#10 89905650#11 -90059903#6 -90059903#5 -90059903#4 -90059903#3 -90059903#2 -90059903#1 90942839#0 90942839#1 90942839#2 -92966485 148395352#1 -90942839#3"/>
    </vehicle>
    <vehicle id="20" depart="14.00">
        <route edges="94786517#0 94786517#1 94786517#2 94786517#3 94786517#4 94786517#5 90734589#0 90734589#1 90734589#2 90734589#3 90734589#4 148641830#0 148641830#1 89773774#3 151380684#0 151380684#1 91312493#0 91312493#1 91312493#2 91312493#3 91312493#4 91312493#5 161487689 90941250#0 148394062#0 148394062#1 148394062#2 148394062#3 148394062#4 147935519#1 89905650#1 89905650#2 89905650#3 89905653#0 89905636#0 89905636#1 89905636#2 89905636#3 89905636#4 89905636#5 89905636#6 89905636#7 89905636#8 201104468#4 160174008#0 160174008#1 89905639#10-AddedOnRampEdge 89905639#10 90051632#0 90051632#1 90051632#2 151375604#16 151375604#17 151375604#18 89693151 89693163#0 89693163#1"/>
    </vehicle>
    <vehicle id="21" depart="14.70">
        <route edges="151375664#0 151375664#1 141880671#0 141880671#1 141880671#2 141880671#3 141880671#4 141880671#5 89756007#0 89756007#1 89756007#2 89756007#3 89756007#4 89756023#1 -151427301 153051659#1 153051659#2 153051659#3 89905634#0 89905634#1 89905634#2 89905634#3 89905634#4 89905634#5 89905634#6 89905634#6-AddedOffRampEdge 89905634#7 89905650#10"/>
    </vehicle>
    <vehicle id="22" depart="15.40">
        <route edges="-90059937#0 150555418#4 150555418#5 46050351#5 90942839#2 90942839#3 148395352#2 92966477#5 92966477#0 92966477#1 -92966484#2 92966482#0 92966482#1 92966479#2 148395795#1"/>
    </vehicle>
    <vehicle id="23" depart="16.10">
        <route edges="143128109 142308593#1 142308593#2 142308593#3 151375605#1"/>
    </vehicle>
    <vehicle id="24" depart="16.80">
        <route edges="-148395352#1 92966485 -90942839#2 -90942839#1 -90942839#0 90059903#1 90059903#2 90059903#3 90059903#4 -90942855 -90942856#0 90059903#6 148394064#0 148394064#1 148394064#2 148394064#3 89905653#3 89905653#2 90064603#2 90064603#3 90064603#4 90064603#5 90064603#6 90064603#7 90064603#8 151380694 151380695 46178146#0 46178146#1 46178146#2 46178146#3 46178146#4 46178146#5 46178146#6 91929357#0 91929357#1 91929357#2 46178146#8 46178146#9 -94786517#5 -94786517#4 -94786517#3 -94786517#2 -94786517#1 91934699#0 -149016816#3"/>
    </vehicle>
    <vehicle id="25" depart="17.50">
        <route edges="148715530 148715530-AddedOffRampEdge 89763494 141880673#3 148715529 46250394#0 46250394#1 89760165#0 89760165#1 89760165#2 89760165#3 89763489#5 141844770#1 201272993#5 201272993#6 201272993#7 89905639#0 89905639#1 89905639#2 89905639#3 89905639#4 89905639#5 89905639#6 89905639#7 89905639#8 89905639#9 89905639#10-AddedOnRampEdge 89905639#10 90051632#0 90051632#1 90051632#2 151375604#16 151375646#1 151375646#2 -89756003 151375675#1 151375675#2 151375675#3 151375675#4 90051626#0 89693169#1 89693169#1-AddedOffRampEdge 89693169#2 89693169#3 89693169#4"/>
    </vehicle>
    <vehicle id="26" depart="18.20">
        <route edges="91929358#0 91929358#1 91934730#4 91934730#5 148617424#0 148617424#1 148617424#2 148617424#3 148617424#4 148617424#5 91929318#0 91929318#1 91929357#7 90734589#3 90734589#4 148641830#0 148641830#1 89773774#3 151380684#0 151380684#1 91312493#0 91312493#1 91312493#2 91312493#3 91312493#4 91312493#5 161487689 90941250#0 148394062#0 148394062#1 148394062#2 148394062#3 148394062#4 147935519#1 89905650#1 89905650#2 89905650#3 89905653#0 89905636#0 89905636#1 89905636#2 89905636#3 89905636#4 89905636#5 89905636#6 89905636#7 89905636#8 201104468#4 160174008#0 160174008#1 89905639#10-AddedOnRampEdge 89905639#10 148645654 153051659#0 153051659#1 153051659#2 90053223#0 90053223#1 -90059932#0 -90059932#4 90053221#0 90053221#1 -92944558#2 -92944558#1 -92735610#1 -148395347#0 148397339#1 148397339#2 148397339#3"/>
    </vehicle>
    <vehicle id="27" depart="18.90">
        <route edges="89756026#6 141844793#9 141844793#10 141844793#11 141844793#12 141844793#13 141844793#14 141844793#15 141844793#16 89762851#0 89762851#1 89762851#2 166703472#0 166703472#1 147593401#0 -46249918#7 -46249918#6 -46249918#5 -46249918#4 92038109#0 92038109#1 92038085#1 92038085#2 92038085#3"/>
    </vehicle>
    <vehicle id="28" depart="19.60">
        <route edges="92966481 92966479#1 92966479#2 -148395795#0 -92966476#4 -98640069#1 -98640069#0 -98626993#2 -98626993#1 148133831#0 151380698#0 151380698#1 148133831#2"/>
    </vehicle>
    <vehicle id="29" depart="20.30">
        <route edges="148645650#0 148645650#1 148645650#2 148645650#3 89693146 159933717#0 159933717#1 159933717#2 159933717#3 159933717#4 159933717#5 159933717#6 159933717#7 200662751#1 200662751#2 200662751#3 159116088#0 159116088#1 155015126#0 155015126#1 155015126#2 155015126#3 155015126#4 155015126#5 155015126#6 155015126#7 155015126#8 141844793#12 141844793#13 141844793#14 141844793#15 141844793#16 89762851#0 89763501#1 147495751#2 151375659#0 151375659#1 151375659#2 151375659#3 147488870#0 147488870#1 147488870#2 91312486#0 91312473#4"/>
    </vehicle>
    <vehicle id="30" depart="21.00">
        <route edges="142308594 149030104#2 149030104#3 149030104#4 149030104#5 46049068#0 46049068#1 151375596 151375595#0 151375595#1 151375595#2 89763483 89760177#0 89760177#1 89760177#2 89760177#3 89760177#4 89760177#5 89760177#6 183092106#0 183092106#1 183092106#2 183092106#3 183092106#4 183092106#5 -147174430#2 -147174430#1 89905627#5 155015126#2 155015126#3 46249914#0"/>
    </vehicle>
    <vehicle id="31" depart="21.70">
        <route edges="92038082#1 92038082#2 -91935528#7 -91935528#6 -91935528#5 46249918#0 46249918#1 46249918#2 89763499#0 89763499#1 89763499#2 46249922#1-AddedOnRampEdge 46249922#1 46249918#6 46249918#7 147495752#0 147495752#1 147495752#2 147495751#0 147495751#1 147495751#2 147495751#3 147495751#4 147495751#5 147495751#6 147495751#7 147495751#8 147495751#9 201272993#0 154548820#0 154548820#1 154548820#2 154548820#3 154548820#4 154548820#5 154548820#6 154548820#7 141844777#0 159116088#4 159116088#5 159116088#6 159116088#7-AddedOnRampEdge 159116088#7 159116088#8 147935513#4 147935513#4-AddedOffRampEdge 147935513#5 89905650#0 89905650#1 89905650#2 89905650#3 89905650#4 89905650#5-AddedOnRampEdge 89905650#5 89905650#6 89905650#7 89905650#8 89905650#9 89905650#10 89905650#11 -90059903#6 -90059903#5 -90059903#4 -90059903#3 -90059903#2 -90059903#1 90942839#0 90942839#1 90942839#2 90942839#3 148395352#2 92966477#5 92966477#0 92966477#1 -92966484#2 92966482#0 92966482#1 92966479#2 -148395795#0 -92966476#4 -98640069#1 98640038#1"/>
    </vehicle>
    <vehicle id="32" depart="22.40">
        <route edges="90942839#0 148395354#3 148395354#4 148395354#5 148395354#6 148395354#6-AddedOffRampEdge 90059928#0 90059928#1 90059928#2 90059928#3 90059928#4 89905626#1 89760161#0 89760161#1 89760161#2 89760161#3 89760161#4-AddedOnRampEdge 89760161#4 89760161#5 89760161#6 89760161#7 159116088#2 159116088#3 159116088#4 89905638#2 159116087#6 89905630#0 89905627#10 147935513#1"/>
    </vehicle>
    <vehicle id="33" depart="23.10">
        <route edges="150431351#0 150431351#1 150431351#2-AddedOnRampEdge 150431351#2 90051626#2 89693163#1"/>
    </vehicle>
    <vehicle id="34" depart="23.80">
        <route edges="92735599#0 92735599#1 -92944528 92944486#2 -92735610#2 -92944558#0 148395347#2 92944494#0 92944494#1 92944497#3 92944497#4 92944497#5 92944497#6 -92735608#9 -92735608#8 -92735608#7 -92735608#6 -92735608#5 -92735608#4 -92735608#3 -92735608#2 -92735608#1 -92735608#0 92966477#1 92966477#2"/>
    </vehicle>
    <vehicle id="35" depart="24.50">
        <route edges="-92944514#1 -92944514#0 148396759#2 -92944489#0 -92735608#8 -92735608#7 -92735608#6 92944504 148395352#0 92966485 -90942839#2 -90942839#1 -90942839#0 90059903#1 90059903#2 90059903#3 90059903#4 -90942855 -90942856#0 90059903#6 148394064#0 148394927#0 148394927#1 148394927#2 90941257#2 90941257#3 90941257#4 90941257#5 148394065#0 148394065#1 151380683#7 151380683#8 161487688#0 161487688#1 149016812#1 91312514"/>
    </vehicle>
    <vehicle id="36" depart="25.20">
        <route edges="46250391#1 46250391#1-AddedOffRampEdge 151375648#0 151375648#1 151375648#2 151375648#3 151375648#4 155015126#3 155015126#4 155015126#5 155015126#6 155015126#7 155015126#8 155015126#9 155015126#10 155015126#11 155015126#12 155015126#13 155015126#14 155015126#15 155015126#16 155015126#17 155015126#18 155015126#19 155015126#20 151372712 151945689 151945688 148526138"/>
    </vehicle>
    <vehicle id="37" depart="25.90">
        <route edges="142308594 149030104#2 149030104#3 149030104#4 149030104#5 46049068#0 46049068#1 151375596 151375595#0 151375595#1 151375666 46629407#0-AddedOnRampEdge 46629407#0 46629407#1 -91584593 89760188#3 89760469#0 89760469#1 89760163#1 89760163#0"/>
    </vehicle>
    <vehicle id="38" depart="26.60">
        <route edges="92944494#0 -92944540 -148395347#3 -148395347#2 92944558#0 92944558#1 92944558#2 -90053221#1 -90053221#0 90059932#4 90059932#0 -90053223#1 90053219#2 90053219#2-AddedOffRampEdge 90053219#3 90053219#4 90053219#5-AddedOnRampEdge 90053219#5 201104468#10 201104468#9 201104468#8 201104468#8-AddedOffRampEdge 201104468#7 201104468#6 201104468#5 201104468#4 201104468#3 201104468#2 201104468#1 201104468#0 159116088#0 159116088#1 155015126#0 155015126#1 155015126#2 155015126#3 155015126#4 155015126#5 155015126#6 155015126#7 155015126#8 155015126#9 155015126#10 155015126#11 155015126#12 155015126#13 155015126#14 155015126#15 155015126#16 155015126#17 155015126#18 155015126#19 89760181#6 151299782#1 151299787 151299778#1-AddedOnRampEdge 151299778#1"/>
    </vehicle>
    <vehicle id="39" depart="27.30">
        <route edges="91929358#0 91929358#1 91934730#4 91934730#5 148617424#0 148617424#1 148617424#2 148617424#3 148617424#4 148617424#5 91929318#0 91929318#1 91929357#7 90734589#3 90734589#4 148641830#0 148641830#1 89773774#3 151380684#0 151380684#1 91312493#0 91312493#1 91312493#2 91312493#3 91312493#4 91312493#5 161487689 90941250#0 148394062#0 148394062#1 148394062#2 148394062#3 148394062#4 147935519#1 89905650#1 89905650#2 89905650#3 89905653#0 89905636#0 89905636#1 89905636#2 89905636#3 89905636#4 89905636#5 89905636#6 89905636#7 89905636#8 201104468#4 160174008#0 160174008#1 89905639#10-AddedOnRampEdge 89905639#10 90051632#0 90051632#1 90051632#2 151375604#16 151375646#1 151375646#2 -89756003 151375675#1 89709708#0 89709708#1"/>
    </vehicle>
    <vehicle id="40" depart="28.00">
        <route edges="148645650#0 148645650#1 148645650#2 148645650#3 89693146 159933717#0 159933717#1 159933717#2 159933717#3 159933717#4 159933717#5 159933717#6 159933717#7 200662751#1 200662751#2 200662751#3 159116088#0 159116088#1 155015126#0 155015126#1 155015126#2 155015126#3 155015126#4 155015126#5 155015126#6 155015126#7 155015126#8 155015126#9 155015126#10 155015126#11 155015126#12 155015126#13 155015126#14 155015126#15 155015126#16 155015126#17 46053226#4 46053226#5 46053226#6 46053226#7 89762713#2 89762713#3 89760156#5 89760156#6"/>
    </vehicle>
    <vehicle id="41" depart="28.70">
        <route edges="-148617425#4 -91934726#5 -91934726#4 -91934726#3 -91934726#2 -91934726#1 -91934726#0 -91929306#3 148617424#5 91929318#0 91929318#1 91929357#7 90734589#3 90734589#4 148641830#0 148641830#1 89773774#3 151380684#0 151380684#1 91312493#0 91312493#1 91312493#2 91312493#3 91312493#4 91312493#5 161487689 90941250#0 148394062#0 148394062#1 148394062#2 148394062#3 148394062#4 147935519#1 89905650#1 89905650#2 89905650#3 89905653#0 89905636#0 89905636#1 89905636#2 89905636#3 89905636#4 89905636#5 89905636#6 89905636#7 89905636#8 201104468#4 160174008#0 160174008#1 89905639#10-AddedOnRampEdge 89905639#10 90051632#0 90051632#1 90051632#2 151375604#16 151375604#17 151375604#18 89693151 89693163#0 89693163#1"/>
    </vehicle>
    <vehicle id="42" depart="29.40">
        <route edges="154548807 141844777#5 141844777#6-AddedOnRampEdge 141844777#6 89905626#0 89905626#1 89905626#2 89905626#3 90053205#0 90053205#0-AddedOffRampEdge 90053205#1 90053205#2 89756024#0 89756024#1 89756024#2 151375646#0 151375604#17 151375604#18 89693151 89693163#0 89693163#1"/>
    </vehicle>
    <vehicle id="43" depart="30.10">
        <route edges="143128097#0 149030104#3 149030104#4 149030104#5 46049068#0 46049068#1 151375596 151375595#0 151375595#1 151375595#2 89763483 89760177#0 89760177#1 89760177#2 89760177#3 89760177#4 89760177#5 89760177#6 183092106#0 183092106#1 183092106#2 183092106#3 183092106#4 141844770#3 141844770#4 141844770#5 141844770#6 159116088#0 159116088#1 159116088#2 159116088#3 159116088#4 159116088#5 159116088#6 159116088#7-AddedOnRampEdge 159116088#7 159116088#8 147935513#4 147935513#4-AddedOffRampEdge 147935513#5 89905650#0 89905650#1 89905650#2 89905650#3 89905650#4 89905650#5-AddedOnRampEdge 89905650#5 89905650#6 89905650#7 89905650#8 89905650#9 89905650#10 89905650#11 -90059903#6 90942856#0 90942856#1 -90942835#4 -90942835#3 -90942835#2 -90942835#1 90942836#0 90942836#1 148394063#10 -90942853 90942848#1 90942831#1 148395348 -90942833#0 90942854#0 90942854#1 147935481#22 147935481#23 151380681 151380682 151380698#0 99043336#0 -98635681#2 -98635681#1 -98635681#0"/>
    </vehicle>
    <vehicle id="44" depart="30.80">
        <route edges="161487673#6 161487673#7 161487673#8 161487673#9 161487673#10 89905626#0 89905626#1 89905626#2 89905626#3 90053205#0 90053205#0-AddedOffRampEdge 90053205#1 90053205#2 89756024#0 89756024#1 89756024#2 151375646#0 151375604#17 151375604#18 89693151 89693163#0 89693163#1"/>
    </vehicle>
    <vehicle id="45" depart="31.50">
        <route edges="150431351#0 150431351#1 150431351#2-AddedOnRampEdge 150431351#2 150431351#3 46050351#0 46050351#1 -92944486#0 -90053221#1 -90053221#0 90059932#4 90059932#0 -90053223#1 90053219#2 90053219#2-AddedOffRampEdge 90053219#3 90053219#4 90053219#5-AddedOnRampEdge 90053219#5 201104468#10 89905634#1 89905634#2 89905634#3 89905634#4 89905634#5 89905634#6 89905634#6-AddedOffRampEdge 89905634#7 89905634#8 148394927#0 148394927#1 148394927#2 90941257#2 90941257#3 90941257#4 90941257#5 148394065#0 161487670#0 161487670#1 161487670#2 161487670#3 161487670#4 161487670#5 -161487672#6 -161487672#5 -161487672#4 -161487672#3 -161487672#2 91923613#0 91923613#1 91923613#2 91923613#3 91923613#4 -148130963#0"/>
    </vehicle>
    <vehicle id="46" depart="32.20">
        <route edges="-99043336#1 -99043336#0 151380698#1 151380698#2 151380700 151380706#0 151380674#2 89693142#0 89693142#1 89693142#2 -92966476#0 -148394063#12 -148394063#11 -148394063#10 -90942836#1 -90942836#0"/>
    </vehicle>
    <vehicle id="47" depart="32.90">
        <route edges="147495751#1 147495751#2 147495751#3 147495751#4 147495751#5 147495751#6 89763489#0 89763489#1 89763489#2 89763489#3 155015126#8 155015126#9 155015126#10 155015126#11 155015126#12 155015126#13 155015126#14 155015126#15 155015126#16 155015126#17 155015126#18 155015126#19 89760181#6 151299782#1 151299787 151299778#1-AddedOnRampEdge 151299778#1"/>
    </vehicle>
    <vehicle id="48" depart="33.60">
        <route edges="144348192#0 144348193#1 46271304#3 46271304#4 90942844#0 90942844#1 -90941237#6 -90941237#5 -90941237#4 -90942852#3 -90942852#2 -90942852#1 -90942852#0 148394063#9 -90942836#1 -90942836#0 -90942835#0 148395354#1 148395354#2 148395354#3 148395354#4 148395354#5 148395354#6 148395354#6-AddedOffRampEdge 148395354#7 148395354#8 148395354#9 148395354#10 148395354#11 148395354#12 148395354#13 89693169#0 89693169#1 89693169#1-AddedOffRampEdge 89693169#2 89693169#3 89693169#4"/>
    </vehicle>
    <vehicle id="49" depart="34.30">
        <route edges="-89709729#2 -89709729#1 -89709729#0 -89709708#2 -89709708#1 -89709708#0 151375675#2 151375675#3 151375675#4 90051626#0 90051626#1 90051626#2 89693163#1"/>
    </vehicle>
    <vehicle id="50" depart="35.00">
        <route edges="148645650#0 92735621#0 92735613#1 92735596#1 -148395800#3 148397339#2 92735625#1"/>
    </vehicle>
    <vehicle id="51" depart="35.70">
        <route edges="90941239#2 90941239#1 90941239#0 -90941251#1 -148394063#0 -90941230#3 -90941230#2 -90941230#1 161487673#0 161487673#1 161487673#2 161487673#3 161487673#4 161487673#5 161487673#6 161487673#7 161487673#8 161487673#9 161487673#10 89905626#0 89905626#1 89760161#0 89760161#1 89760161#2 89760161#3 89760161#4-AddedOnRampEdge 89760161#4 89760161#5 89760161#6 89760161#7 155015126#0 155015126#1 155015126#2 155015126#3 155015126#4 155015126#5 155015126#6 155015126#7 155015126#8 155015126#9 155015126#10 155015126#11 155015126#12 155015126#13 155015126#14 155015126#15 155015126#16 155015126#17 155015126#18 155015126#19 89760181#6 89760181#7 89760181#8 151299781 156659974#1 156672348#0 156672348#1 151299783#0 151299783#1"/>
    </vehicle>
    <vehicle id="52" depart="36.40">
        <route edges="-92944520#0 -92944523#1 92944552 -92735608#7 -92735608#6 92944504 148395352#0 92966485 -90942839#2 -90942839#1 -90942839#0 90059903#1 90059903#2 90059903#3 90059903#4 -90942855 -90942856#0 90059903#6 148394064#0 148394064#1 148394064#2 148394064#3 89905653#3 89905653#2 90064603#2 90064603#3 90064603#4 90064603#5 90064603#6 90064603#7 90064603#8 151380694 151380695 46178146#0 46178146#1 46178146#2 46178146#3 46178146#4 46178146#5 46178146#6 91929357#0 91929357#1 91929357#2 46178146#8 46178146#9 -94786517#5 -94786517#4 -94786517#3 -94786517#2 -94786517#1 -94786517#0"/>
    </vehicle>
    <vehicle id="53" depart="37.10">
        <route edges="151380683#0 151380683#1 161487676 90941221#0 90941221#1 90941221#2 90941221#3 89905653#5 89905653#4 89905653#3 89905653#2 90064603#2 90064603#3 90064603#4 90064603#5 90064603#6 90064603#7 90064603#8 151380694 151380695 46178146#0 46178146#1 46178146#2 46178146#3 46178146#4 46178146#5 46178146#6 91929357#0 91929357#1 91929357#2 91929357#3 91929357#4 46250330#0 91929306#1 91929306#2 91929306#3 91934726#0 91934726#1 91934726#2 91934726#3 91934726#4 91934726#5 91934726#6"/>
    </vehicle>
    <vehicle id="54" depart="37.80">
        <route edges="-148395795#1 -92966479#2 -92966482#1 -92966482#0 92966484#2 -92966477#1 -92966477#0 -92966477#5 -148395352#2 -90942839#3 -90942839#2 -90942839#1 148395354#3 148395354#4 148395354#5 148395354#6 148395354#6-AddedOffRampEdge 148395354#7 148395354#8 148395354#9 148395354#10 148395354#11 148395354#12 148395354#13 89693169#0 90051626#1 90051626#2 89693163#1"/>
    </vehicle>
    <vehicle id="55" depart="38.50">
        <route edges="149030104#0 149030104#1 149030104#2 149030104#3 149030104#4 149030104#5 46049068#0 46049068#1 151375596 151375595#0 151375595#1 151375595#2 89763483 89760177#0 89760177#1 89760177#2 89760177#3 89760177#4 89760177#5 201272993#11 151375604#6 151375604#7 151375604#8 151375604#9 151375604#10 151375604#11 151375604#12 151375604#13 151375604#14 151375604#15 151375604#16 151375604#17 151375604#18 89693151 89693163#0 89693163#1"/>
    </vehicle>
    <vehicle id="56" depart="39.20">
        <route edges="148617415#3 91929327#6 91934729#6 92038085#3 -92038088 151380665#4 151380665#5 91312473#0 91312473#1 91312473#2 91312473#3 91312473#4 91312473#5 91312473#6 91312473#7 91312473#8 151375602+91312473#9 91312473#10 91312473#11 91312473#12 91312473#13 91312473#14 201272993#0 201272993#1 201272993#2 201272993#3 201272993#4 201272993#5 201272993#6 201272993#7 201272993#8 201272993#9 201272993#10 201272993#11 201272993#12 201272993#13 89756004#4 89756004#3 89756004#2 89756004#1 158415921#1 158415921#2 89696255#3 151375604#0 151375604#1"/>
    </vehicle>
    <vehicle id="57" depart="39.90">