<?xml version="1.0" encoding="UTF-8"?>

<!-- generated on Thu Oct 23 22:34:10 2014 by SUMO duarouter Version 0.18.0
<?xml version="1.0" encoding="UTF-8"?>

<configuration xmlns:xsi="http://www.w3.org/2001/XMLSchema-instance" xsi:noNamespaceSchemaLocation="http://sumo.sf.net/xsd/duarouterConfiguration.xsd">

    <input>
        <net-file value="corridor.net.xml"/>
        <trip-files value="experimentos/corridor.p0.4.4.trips.xml"/>
    </input>

    <output>
        <output-file value="experimentos/corridor.p0.4.4.rou.xml"/>
    </output>

    <processing>
        <ignore-errors value="true"/>
    </processing>

    <random_number>
        <random value="true"/>
    </random_number>

</configuration>
-->

<routes xmlns:xsi="http://www.w3.org/2001/XMLSchema-instance" xsi:noNamespaceSchemaLocation="http://sumo.sf.net/xsd/routes_file.xsd">
    <vehicle id="1" depart="0.40">
        <route edges="7:5 5:3 3:2 2:1 1:0"/>
    </vehicle>
    <vehicle id="2" depart="0.80">
        <route edges="0:1 1:2 2:3 3:5 5:7"/>
    </vehicle>
    <vehicle id="4" depart="1.60">
        <route edges="6:4 4:0 0:1 1:12"/>
    </vehicle>
    <vehicle id="5" depart="2.00">
        <route edges="4:0 0:10 10:11"/>
    </vehicle>
    <vehicle id="6" depart="2.40">
        <route edges="19:18 18:3 3:2 2:1 1:0 0:8 8:9"/>
    </vehicle>
    <vehicle id="8" depart="3.20">
        <route edges="9:8 8:0 0:1 1:2 2:3"/>
    </vehicle>
    <vehicle id="9" depart="3.60">
        <route edges="15:14 14:2 2:3 3:5 5:7"/>
    </vehicle>
    <vehicle id="10" depart="4.00">
        <route edges="6:4 4:0 0:1 1:2 2:3 3:16 16:17"/>
    </vehicle>
    <vehicle id="11" depart="4.40">
        <route edges="17:16 16:3 3:2 2:1"/>
    </vehicle>
    <vehicle id="13" depart="5.20">
        <route edges="14:2 2:3 3:18 18:19"/>
    </vehicle>
    <vehicle id="17" depart="6.80">
        <route edges="1:0 0:4 4:6"/>
    </vehicle>
    <vehicle id="18" depart="7.20">
        <route edges="3:2 2:1 1:12 12:13"/>
    </vehicle>
    <vehicle id="19" depart="7.60">
        <route edges="19:18 18:3 3:5 5:7"/>
    </vehicle>
    <vehicle id="20" depart="8.00">
        <route edges="2:3 3:5 5:7"/>
    </vehicle>
    <vehicle id="21" depart="8.40">
        <route edges="0:1 1:2 2:3 3:5"/>
    </vehicle>
    <vehicle id="23" depart="9.20">
        <route edges="6:4 4:0 0:1 1:2 2:3 3:5"/>
    </vehicle>
    <vehicle id="27" depart="10.80">
        <route edges="6:4 4:0 0:8"/>
    </vehicle>
    <vehicle id="30" depart="12.00">
        <route edges="9:8 8:0 0:10"/>
    </vehicle>
    <vehicle id="32" depart="12.80">
        <route edges="13:12 12:1 1:2 2:14"/>
    </vehicle>
    <vehicle id="35" depart="14.00">
        <route edges="6:4 4:0 0:8 8:9"/>
    </vehicle>
    <vehicle id="36" depart="14.40">
        <route edges="7:5 5:3 3:2 2:14 14:15"/>
    </vehicle>
    <vehicle id="37" depart="14.80">
        <route edges="1:2 2:3 3:18 18:19"/>
    </vehicle>
    <vehicle id="39" depart="15.60">
        <route edges="6:4 4:0 0:1 1:2 2:3 3:5 5:7"/>
    </vehicle>
    <vehicle id="41" depart="16.40">
        <route edges="9:8 8:0 0:1 1:2 2:3 3:16"/>
    </vehicle>
    <vehicle id="43" depart="17.20">
        <route edges="17:16 16:3 3:2 2:14 14:15"/>
    </vehicle>
    <vehicle id="44" depart="17.60">
        <route edges="13:12 12:1 1:0 0:10 10:11"/>
    </vehicle>
    <vehicle id="46" depart="18.40">
        <route edges="13:12 12:1 1:2 2:3 3:5 5:7"/>
    </vehicle>
    <vehicle id="47" depart="18.80">
        <route edges="13:12 12:1 1:2 2:3 3:5 5:7"/>
    </vehicle>
    <vehicle id="48" depart="19.20">
        <route edges="6:4 4:0"/>
    </vehicle>
    <vehicle id="52" depart="20.80">
        <route edges="11:10 10:0"/>
    </vehicle>
    <vehicle id="53" depart="21.20">
        <route edges="7:5 5:3 3:2 2:1 1:0"/>
    </vehicle>
    <vehicle id="54" depart="21.60">
        <route edges="13:12 12:1 1:2 2:3 3:5 5:7"/>
    </vehicle>
    <vehicle id="55" depart="22.00">
        <route edges="6:4 4:0 0:1 1:2 2:14 14:15"/>
    </vehicle>
    <vehicle id="57" depart="22.80">
        <route edges="8:0 0:1 1:12 12:13"/>
    </vehicle>
    <vehicle id="58" depart="23.20">
        <route edges="16:3 3:2 2:1 1:0 0:4 4:6"/>
    </vehicle>
    <vehicle id="59" depart="23.60">
        <route edges="7:5 5:3 3:2 2:1 1:0 0:10"/>
    </vehicle>
    <vehicle id="61" depart="24.40">
        <route edges="8:0 0:1 1:2 2:14 14:15"/>
    </vehicle>
    <vehicle id="62" depart="24.80">
        <route edges="4:0 0:1 1:2 2:14 14:15"/>
    </vehicle>
    <vehicle id="63" depart="25.20">
        <route edges="6:4 4:0 0:1 1:2 2:3 3:16 16:17"/>
    </vehicle>
    <vehicle id="64" depart="25.60">
        <route edges="4:0 0:8 8:9"/>
    </vehicle>
    <vehicle id="65" depart="26.00">
        <route edges="0:4"/>
    </vehicle>
    <vehicle id="69" depart="27.60">
        <route edges="17:16 16:3 3:2 2:1 1:0 0:4 4:6"/>
    </vehicle>
    <vehicle id="70" depart="28.00">
        <route edges="2:3"/>
    </vehicle>
    <vehicle id="72" depart="28.80">
        <route edges="9:8 8:0 0:4"/>
    </vehicle>
    <vehicle id="74" depart="29.60">
        <route edges="10:0 0:1 1:2 2:3 3:18 18:19"/>
    </vehicle>
    <vehicle id="78" depart="31.20">
        <route edges="6:4 4:0 0:1 1:2 2:3 3:18 18:19"/>
    </vehicle>
    <vehicle id="80" depart="32.00">
        <route edges="11:10 10:0 0:1"/>
    </vehicle>
    <vehicle id="82" depart="32.80">
        <route edges="11:10 10:0 0:8 8:9"/>
    </vehicle>
    <vehicle id="84" depart="33.60">
        <route edges="12:1 1:2 2:14 14:15"/>
    </vehicle>
    <vehicle id="89" depart="35.60">
        <route edges="6:4 4:0 0:1 1:2 2:14 14:15"/>
    </vehicle>
    <vehicle id="92" depart="36.80">
        <route edges="3:2 2:1 1:0 0:8"/>
    </vehicle>
    <vehicle id="93" depart="37.20">
        <route edges="7:5 5:3 3:2 2:1 1:0 0:8 8:9"/>
    </vehicle>
    <vehicle id="95" depart="38.00">
        <route edges="19:18 18:3"/>
    </vehicle>
    <vehicle id="97" depart="38.80">
        <route edges="17:16 16:3 3:2 2:1 1:0 0:8 8:9"/>
    </vehicle>
    <vehicle id="99" depart="39.60">
        <route edges="5:3"/>
    </vehicle>
    <vehicle id="102" depart="40.80">
        <route edges="19:18 18:3 3:5 5:7"/>
    </vehicle>
    <vehicle id="104" depart="41.60">
        <route edges="4:0 0:1 1:2 2:3 3:16 16:17"/>
    </vehicle>
    <vehicle id="105" depart="42.00">
        <route edges="9:8 8:0 0:1 1:2 2:3 3:5 5:7"/>
    </vehicle>
    <vehicle id="106" depart="42.40">
        <route edges="0:1 1:2 2:3 3:5 5:7"/>
    </vehicle>
    <vehicle id="110" depart="44.00">
        <route edges="6:4 4:0 0:8"/>
    </vehicle>
    <vehicle id="113" depart="45.20">
        <route edges="1:2 2:3"/>
    </vehicle>
    <vehicle id="114" depart="45.60">
        <route edges="14:2 2:3 3:18 18:19"/>
    </vehicle>
    <vehicle id="116" depart="46.40">
        <route edges="7:5 5:3 3:2 2:1 1:0 0:4 4:6"/>
    </vehicle>
    <vehicle id="120" depart="48.00">
        <route edges="7:5 5:3 3:2 2:1 1:0 0:10 10:11"/>
    </vehicle>
    <vehicle id="123" depart="49.20">
        <route edges="19:18 18:3 3:2 2:1 1:0 0:8"/>
    </vehicle>
    <vehicle id="125" depart="50.00">
        <route edges="7:5 5:3 3:16"/>
    </vehicle>
    <vehicle id="134" depart="53.60">
        <route edges="6:4 4:0 0:1 1:2 2:3 3:16"/>
    </vehicle>
    <vehicle id="135" depart="54.00">
        <route edges="6:4 4:0 0:10"/>
    </vehicle>
    <vehicle id="136" depart="54.40">
        <route edges="5:3 3:2 2:1 1:0 0:4"/>
    </vehicle>
    <vehicle id="137" depart="54.80">
        <route edges="17:16 16:3 3:2 2:1 1:12 12:13"/>
    </vehicle>
    <vehicle id="138" depart="55.20">
        <route edges="17:16 16:3 3:2 2:1 1:0 0:4"/>
    </vehicle>
    <vehicle id="140" depart="56.00">
        <route edges="9:8 8:0 0:1"/>
    </vehicle>
    <vehicle id="141" depart="56.40">
        <route edges="9:8 8:0 0:1 1:2 2:3 3:18 18:19"/>
    </vehicle>
    <vehicle id="142" depart="56.80">
        <route edges="9:8 8:0 0:4 4:6"/>
    </vehicle>
    <vehicle id="144" depart="57.60">
        <route edges="6:4 4:0 0:1 1:2 2:3 3:5"/>
    </vehicle>
    <vehicle id="147" depart="58.80">
        <route edges="11:10 10:0 0:1 1:2 2:3"/>
    </vehicle>
    <vehicle id="149" depart="59.60">
        <route edges="6:4 4:0 0:1 1:2 2:3 3:18 18:19"/>
    </vehicle>
    <vehicle id="151" depart="60.40">
        <route edges="4:0 0:1 1:2 2:3 3:5 5:7"/>
    </vehicle>
    <vehicle id="152" depart="60.80">
        <route edges="11:10 10:0 0:1 1:2 2:3 3:5"/>
    </vehicle>
    <vehicle id="156" depart="62.40">
        <route edges="7:5 5:3 3:2 2:1 1:0 0:4 4:6"/>
    </vehicle>
    <vehicle id="158" depart="63.20">
        <route edges="13:12 12:1 1:2 2:3 3:5 5:7"/>
    </vehicle>
    <vehicle id="159" depart="63.60">
        <route edges="15:14 14:2 2:1 1:0 0:10 10:11"/>
    </vehicle>
    <vehicle id="160" depart="64.00">
        <route edges="4:0 0:10 10:11"/>
    </vehicle>
    <vehicle id="161" depart="64.40">
        <route edges="9:8 8:0 0:4"/>
    </vehicle>
    <vehicle id="163" depart="65.20">
        <route edges="10:0 0:1 1:2 2:3"/>
    </vehicle>
    <vehicle id="166" depart="66.40">
        <route edges="10:0 0:1 1:2 2:3 3:5 5:7"/>
    </vehicle>
    <vehicle id="167" depart="66.80">
        <route edges="15:14 14:2 2:1 1:0 0:10 10:11"/>
    </vehicle>
    <vehicle id="171" depart="68.40">
        <route edges="6:4 4:0 0:10"/>
    </vehicle>
    <vehicle id="172" depart="68.80">
        <route edges="7:5 5:3 3:18 18:19"/>
    </vehicle>
    <vehicle id="176" depart="70.40">
        <route edges="19:18 18:3 3:2"/>
    </vehicle>
    <vehicle id="177" depart="70.80">
        <route edges="7:5 5:3 3:2 2:1 1:0 0:4 4:6"/>
    </vehicle>
    <vehicle id="179" depart="71.60">
        <route edges="6:4 4:0 0:8"/>
    </vehicle>
    <vehicle id="181" depart="72.40">
        <route edges="7:5 5:3 3:16 16:17"/>
    </vehicle>
    <vehicle id="182" depart="72.80">
        <route edges="17:16 16:3 3:5 5:7"/>
    </vehicle>
    <vehicle id="189" depart="75.60">
        <route edges="6:4 4:0 0:1 1:2 2:3 3:5"/>
    </vehicle>
    <vehicle id="190" depart="76.00">
        <route edges="2:1 1:12 12:13"/>
    </vehicle>
    <vehicle id="193" depart="77.20">
        <route edges="11:10 10:0 0:1"/>
    </vehicle>
    <vehicle id="194" depart="77.60">
        <route edges="15:14 14:2 2:1 1:0 0:4 4:6"/>
    </vehicle>
    <vehicle id="197" depart="78.80">
        <route edges="5:3 3:2 2:1 1:0 0:8"/>
    </vehicle>
    <vehicle id="198" depart="79.20">
        <route edges="15:14 14:2 2:3 3:5 5:7"/>
    </vehicle>
    <vehicle id="200" depart="80.00">
        <route edges="6:4 4:0 0:1 1:2 2:14 14:15"/>
    </vehicle>
    <vehicle id="203" depart="81.20">
        <route edges="5:3 3:2 2:1 1:0 0:10 10:11"/>
    </vehicle>
    <vehicle id="204" depart="81.60">
        <route edges="14:2 2:3 3:16"/>
    </vehicle>
    <vehicle id="205" depart="82.00">
        <route edges="7:5 5:3 3:2 2:1 1:0 0:8 8:9"/>
    </vehicle>
    <vehicle id="206" depart="82.40">
        <route edges="15:14 14:2 2:1 1:0 0:8 8:9"/>
    </vehicle>
    <vehicle id="207" depart="82.80">
        <route edges="11:10 10:0 0:1 1:2 2:3 3:18 18:19"/>
    </vehicle>
    <vehicle id="208" depart="83.20">
        <route edges="6:4 4:0 0:10"/>
    </vehicle>
    <vehicle id="209" depart="83.60">
        <route edges="15:14 14:2 2:1 1:0 0:4 4:6"/>
    </vehicle>
    <vehicle id="211" depart="84.40">
        <route edges="12:1 1:0 0:4 4:6"/>
    </vehicle>
    <vehicle id="214" depart="85.60">
        <route edges="0:4 4:6"/>
    </vehicle>
    <vehicle id="215" depart="86.00">
        <route edges="6:4 4:0"/>
    </vehicle>
    <vehicle id="216" depart="86.40">
        <route edges="6:4 4:0 0:1 1:2 2:3 3:5 5:7"/>
    </vehicle>
    <vehicle id="217" depart="86.80">
        <route edges="6:4 4:0 0:1 1:2 2:3 3:18 18:19"/>
    </vehicle>
    <vehicle id="218" depart="87.20">
        <route edges="6:4 4:0 0:1 1:2 2:3 3:5 5:7"/>
    </vehicle>
    <vehicle id="220" depart="88.00">
        <route edges="15:14 14:2 2:1 1:12"/>
    </vehicle>
    <vehicle id="221" depart="88.40">
        <route edges="13:12 12:1 1:0 0:4 4:6"/>
    </vehicle>
    <vehicle id="222" depart="88.80">
        <route edges="2:1 1:12 12:13"/>
    </vehicle>
    <vehicle id="224" depart="89.60">
        <route edges="15:14 14:2 2:1 1:0 0:4 4:6"/>
    </vehicle>
    <vehicle id="227" depart="90.80">
        <route edges="13:12 12:1 1:0"/>
    </vehicle>
    <vehicle id="228" depart="91.20">
        <route edges="18:3 3:5 5:7"/>
    </vehicle>
    <vehicle id="229" depart="91.60">
        <route edges="1:0 0:10 10:11"/>
    </vehicle>
    <vehicle id="230" depart="92.00">
        <route edges="6:4 4:0 0:1 1:2 2:3 3:5 5:7"/>
    </vehicle>
    <vehicle id="232" depart="92.80">
        <route edges="7:5 5:3 3:18 18:19"/>
    </vehicle>
    <vehicle id="233" depart="93.20">
        <route edges="9:8 8:0 0:1 1:2 2:3 3:16"/>
    </vehicle>
    <vehicle id="234" depart="93.60">
        <route edges="1:2 2:3 3:5 5:7"/>
    </vehicle>
    <vehicle id="236" depart="94.40">
        <route edges="6:4 4:0 0:1 1:2 2:3 3:5 5:7"/>
    </vehicle>
    <vehicle id="239" depart="95.60">
        <route edges="19:18 18:3 3:5"/>
    </vehicle>
    <vehicle id="240" depart="96.00">
        <route edges="4:0 0:1 1:2 2:3 3:5 5:7"/>
    </vehicle>
    <vehicle id="242" depart="96.80">
        <route edges="19:18 18:3 3:5 5:7"/>
    </vehicle>
    <vehicle id="244" depart="97.60">
        <route edges="13:12 12:1 1:0 0:8 8:9"/>
    </vehicle>
    <vehicle id="245" depart="98.00">
        <route edges="19:18 18:3 3:2 2:1 1:12 12:13"/>
    </vehicle>
    <vehicle id="246" depart="98.40">
        <route edges="5:3 3:18 18:19"/>
    </vehicle>
    <vehicle id="247" depart="98.80">
        <route edges="13:12 12:1 1:2 2:3 3:5 5:7"/>
    </vehicle>
    <vehicle id="249" depart="99.60">
        <route edges="3:5 5:7"/>
    </vehicle>
    <vehicle id="250" depart="100.00">
        <route edges="13:12 12:1 1:2 2:3 3:5 5:7"/>
    </vehicle>
    <vehicle id="251" depart="100.40">
        <route edges="5:3 3:16"/>
    </vehicle>
    <vehicle id="252" depart="100.80">
        <route edges="7:5 5:3 3:2 2:1 1:0 0:4 4:6"/>
    </vehicle>
    <vehicle id="253" depart="101.20">
        <route edges="17:16 16:3 3:2 2:1"/>
    </vehicle>
    <vehicle id="254" depart="101.60">
        <route edges="7:5 5:3 3:2 2:1 1:12 12:13"/>
    </vehicle>
    <vehicle id="257" depart="102.80">
        <route edges="19:18 18:3 3:2 2:1 1:12 12:13"/>
    </vehicle>
    <vehicle id="258" depart="103.20">
        <route edges="6:4 4:0 0:1 1:2 2:3 3:5"/>
    </vehicle>
    <vehicle id="259" depart="103.60">
        <route edges="7:5 5:3 3:2 2:1 1:0 0:4 4:6"/>
    </vehicle>
    <vehicle id="262" depart="104.80">
        <route edges="15:14 14:2 2:1 1:0 0:8 8:9"/>
    </vehicle>
    <vehicle id="265" depart="106.00">
        <route edges="6:4 4:0 0:1 1:2 2:3 3:5 5:7"/>
    </vehicle>
    <vehicle id="267" depart="106.80">
        <route edges="10:0 0:1 1:12 12:13"/>
    </vehicle>
    <vehicle id="269" depart="107.60">
        <route edges="15:14 14:2 2:3 3:5"/>
    </vehicle>
    <vehicle id="272" depart="108.80">
        <route edges="6:4 4:0 0:1 1:2 2:3 3:5 5:7"/>
    </vehicle>
    <vehicle id="274" depart="109.60">
        <route edges="15:14 14:2 2:1 1:0 0:10 10:11"/>
    </vehicle>
    <vehicle id="275" depart="110.00">
        <route edges="6:4 4:0"/>
    </vehicle>
    <vehicle id="278" depart="111.20">
        <route edges="7:5 5:3 3:2 2:1 1:0 0:4 4:6"/>
    </vehicle>
    <vehicle id="283" depart="113.20">
        <route edges="6:4 4:0"/>
    </vehicle>
    <vehicle id="285" depart="114.00">
        <route edges="13:12 12:1 1:2 2:3 3:5"/>
    </vehicle>
    <vehicle id="286" depart="114.40">
        <route edges="17:16 16:3 3:18 18:19"/>
    </vehicle>
    <vehicle id="287" depart="114.80">
        <route edges="0:1 1:2"/>
    </vehicle>
    <vehicle id="288" depart="115.20">
        <route edges="4:0 0:10"/>
    </vehicle>
    <vehicle id="289" depart="115.60">
        <route edges="12:1 1:0 0:4 4:6"/>
    </vehicle>
    <vehicle id="292" depart="116.80">
        <route edges="0:1 1:2 2:3 3:16 16:17"/>
    </vehicle>
    <vehicle id="296" depart="118.40">
        <route edges="13:12 12:1 1:2 2:3 3:18"/>
    </vehicle>
    <vehicle id="297" depart="118.80">
        <route edges="14:2 2:1"/>
    </vehicle>
    <vehicle id="299" depart="119.60">
        <route edges="5:3 3:2 2:1 1:0 0:4 4:6"/>
    </vehicle>
    <vehicle id="300" depart="120.00">
        <route edges="9:8 8:0 0:1 1:2 2:3"/>
    </vehicle>
    <vehicle id="302" depart="120.80">
        <route edges="3:2 2:1 1:0 0:4 4:6"/>
    </vehicle>
    <vehicle id="303" depart="121.20">
        <route edges="17:16 16:3 3:2 2:1 1:0 0:10"/>
    </vehicle>
    <vehicle id="304" depart="121.60">
        <route edges="2:3 3:16 16:17"/>
    </vehicle>
    <vehicle id="306" depart="122.40">
        <route edges="7:5 5:3 3:2 2:1 1:12 12:13"/>
    </vehicle>
    <vehicle id="307" depart="122.80">
        <route edges="1:2 2:3 3:5"/>
    </vehicle>
    <vehicle id="310" depart="124.00">
        <route edges="17:16 16:3 3:2 2:1 1:0 0:4"/>
    </vehicle>
    <vehicle id="312" depart="124.80">
        <route edges="11:10 10:0 0:8 8:9"/>
    </vehicle>
    <vehicle id="314" depart="125.60">
        <route edges="14:2 2:1 1:0 0:10 10:11"/>
    </vehicle>
    <vehicle id="316" depart="126.40">
        <route edges="13:12 12:1 1:0"/>
    </vehicle>
    <vehicle id="317" depart="126.80">
        <route edges="11:10 10:0 0:1 1:12 12:13"/>
    </vehicle>
    <vehicle id="319" depart="127.60">
        <route edges="1:2 2:3 3:18 18:19"/>
    </vehicle>
    <vehicle id="321" depart="128.40">
        <route edges="3:2 2:1 1:0 0:4 4:6"/>
    </vehicle>
    <vehicle id="322" depart="128.80">
        <route edges="4:0 0:1 1:12 12:13"/>
    </vehicle>
    <vehicle id="323" depart="129.20">
        <route edges="7:5 5:3 3:16 16:17"/>
    </vehicle>
    <vehicle id="324" depart="129.60">
        <route edges="15:14 14:2 2:1 1:0"/>
    </vehicle>
    <vehicle id="325" depart="130.00">
        <route edges="17:16 16:3 3:2 2:1 1:0 0:4 4:6"/>
    </vehicle>
    <vehicle id="326" depart="130.40">
        <route edges="7:5 5:3 3:2 2:1"/>
    </vehicle>
    <vehicle id="328" depart="131.20">
        <route edges="9:8 8:0 0:4 4:6"/>
    </vehicle>
    <vehicle id="329" depart="131.60">
        <route edges="6:4 4:0 0:8 8:9"/>
    </vehicle>
    <vehicle id="330" depart="132.00">
        <route edges="7:5 5:3 3:18"/>
    </vehicle>
    <vehicle id="331" depart="132.40">
        <route edges="6:4 4:0 0:1 1:2 2:14 14:15"/>
    </vehicle>
    <vehicle id="332" depart="132.80">
        <route edges="5:3 3:2 2:1 1:0 0:8 8:9"/>
    </vehicle>
    <vehicle id="333" depart="133.20">
        <route edges="10:0 0:1 1:2 2:3 3:5 5:7"/>
    </vehicle>
    <vehicle id="334" depart="133.60">
        <route edges="15:14 14:2 2:3 3:5 5:7"/>
    </vehicle>
    <vehicle id="336" depart="134.40">
        <route edges="15:14 14:2 2:3 3:18"/>
    </vehicle>
    <vehicle id="338" depart="135.20">
        <route edges="3:2"/>
    </vehicle>
    <vehicle id="340" depart="136.00">
        <route edges="12:1 1:0 0:8"/>
    </vehicle>
    <vehicle id="342" depart="136.80">
        <route edges="0:1 1:2 2:3 3:18"/>
    </vehicle>
    <vehicle id="346" depart="138.40">
        <route edges="15:14 14:2 2:3 3:16 16:17"/>
    </vehicle>
    <vehicle id="348" depart="139.20">
        <route edges="15:14 14:2 2:1 1:12"/>
    </vehicle>
    <vehicle id="349" depart="139.60">
        <route edges="0:1 1:2 2:3 3:16 16:17"/>
    </vehicle>
    <vehicle id="351" depart="140.40">
        <route edges="6:4 4:0 0:1 1:12 12:13"/>
    </vehicle>
    <vehicle id="352" depart="140.80">
        <route edges="1:2 2:3 3:18 18:19"/>
    </vehicle>
    <vehicle id="353" depart="141.20">
        <route edges="0:1 1:2 2:3"/>
    </vehicle>
    <vehicle id="354" depart="141.60">
        <route edges="5:3 3:2 2:1 1:0 0:10"/>
    </vehicle>
    <vehicle id="355" depart="142.00">
        <route edges="17:16 16:3 3:2 2:1 1:0 0:8 8:9"/>
    </vehicle>
    <vehicle id="356" depart="142.40">
        <route edges="7:5 5:3 3:2 2:1 1:0 0:4 4:6"/>
    </vehicle>
    <vehicle id="357" depart="142.80">
        <route edges="2:1 1:0 0:8 8:9"/>
    </vehicle>
    <vehicle id="359" depart="143.60">
        <route edges="4:0 0:1 1:2 2:14 14:15"/>
    </vehicle>
    <vehicle id="363" depart="145.20">
        <route edges="1:12 12:13"/>
    </vehicle>
    <vehicle id="366" depart="146.40">
        <route edges="15:14 14:2 2:1 1:0 0:8 8:9"/>
    </vehicle>
    <vehicle id="367" depart="146.80">
        <route edges="11:10 10:0 0:1 1:12 12:13"/>
    </vehicle>
    <vehicle id="369" depart="147.60">
        <route edges="19:18 18:3 3:2 2:1 1:0 0:10 10:11"/>
    </vehicle>
    <vehicle id="370" depart="148.00">
        <route edges="11:10 10:0 0:1 1:2 2:3"/>
    </vehicle>
    <vehicle id="371" depart="148.40">
        <route edges="7:5 5:3 3:2 2:1 1:0 0:4 4:6"/>
    </vehicle>
    <vehicle id="372" depart="148.80">
        <route edges="18:3 3:2 2:1 1:0 0:4 4:6"/>
    </vehicle>
    <vehicle id="373" depart="149.20">
        <route edges="17:16 16:3 3:18 18:19"/>
    </vehicle>
    <vehicle id="374" depart="149.60">
        <route edges="16:3 3:5 5:7"/>
    </vehicle>
    <vehicle id="375" depart="150.00">
        <route edges="6:4 4:0 0:10 10:11"/>
    </vehicle>
    <vehicle id="376" depart="150.40">
        <route edges="15:14 14:2 2:3 3:5 5:7"/>
    </vehicle>
    <vehicle id="378" depart="151.20">
        <route edges="7:5 5:3 3:2 2:14"/>
    </vehicle>
    <vehicle id="379" depart="151.60">
        <route edges="1:0 0:8 8:9"/>
    </vehicle>
    <vehicle id="383" depart="153.20">
        <route edges="2:1 1:0"/>
    </vehicle>
    <vehicle id="384" depart="153.60">
        <route edges="0:4 4:6"/>
    </vehicle>
    <vehicle id="385" depart="154.00">
        <route edges="9:8 8:0 0:1 1:12 12:13"/>
    </vehicle>
    <vehicle id="386" depart="154.40">
        <route edges="9:8 8:0 0:4"/>
    </vehicle>
    <vehicle id="387" depart="154.80">
        <route edges="17:16 16:3 3:2 2:1 1:12 12:13"/>
    </vehicle>
    <vehicle id="388" depart="155.20">
        <route edges="17:16 16:3 3:18 18:19"/>
    </vehicle>
    <vehicle id="390" depart="156.00">
        <route edges="13:12 12:1 1:2 2:3 3:18 18:19"/>
    </vehicle>
    <vehicle id="394" depart="157.60">
        <route edges="5:3 3:2 2:1 1:0 0:8 8:9"/>
    </vehicle>
    <vehicle id="395" depart="158.00">
        <route edges="9:8 8:0 0:1 1:2 2:14 14:15"/>
    </vehicle>
    <vehicle id="396" depart="158.40">
        <route edges="6:4 4:0 0:1 1:2 2:3 3:5 5:7"/>
    </vehicle>
    <vehicle id="398" depart="159.20">
        <route edges="10:0 0:1 1:2"/>
    </vehicle>
    <vehicle id="399" depart="159.60">
        <route edges="13:12 12:1 1:2 2:3 3:5 5:7"/>
    </vehicle>
    <vehicle id="400" depart="160.00">
        <route edges="4:0 0:8 8:9"/>
    </vehicle>
    <vehicle id="401" depart="160.40">
        <route edges="7:5 5:3 3:2 2:1 1:0 0:4 4:6"/>
    </vehicle>
    <vehicle id="403" depart="161.20">
        <route edges="9:8 8:0 0:1 1:2"/>
    </vehicle>
    <vehicle id="406" depart="162.40">
        <route edges="9:8 8:0 0:1 1:2 2:14 14:15"/>
    </vehicle>
    <vehicle id="407" depart="162.80">
        <route edges="17:16 16:3 3:2 2:1 1:0 0:8"/>
    </vehicle>
    <vehicle id="408" depart="163.20">
        <route edges="2:3 3:16 16:17"/>
    </vehicle>
    <vehicle id="409" depart="163.60">
        <route edges="15:14 14:2 2:3 3:5 5:7"/>
    </vehicle>
    <vehicle id="411" depart="164.40">
        <route edges="0:1 1:2 2:3 3:16 16:17"/>
    </vehicle>
    <vehicle id="413" depart="165.20">
        <route edges="15:14 14:2 2:3 3:18 18:19"/>
    </vehicle>
    <vehicle id="414" depart="165.60">
        <route edges="15:14 14:2 2:3 3:18 18:19"/>
    </vehicle>
    <vehicle id="416" depart="166.40">
        <route edges="9:8 8:0 0:4 4:6"/>
    </vehicle>
    <vehicle id="418" depart="167.20">
        <route edges="13:12 12:1 1:0 0:4 4:6"/>
    </vehicle>
    <vehicle id="420" depart="168.00">
        <route edges="0:1 1:2 2:14"/>
    </vehicle>
    <vehicle id="421" depart="168.40">
        <route edges="19:18 18:3 3:2 2:14 14:15"/>
    </vehicle>
    <vehicle id="423" depart="169.20">
        <route edges="10:0 0:1 1:2 2:14"/>
    </vehicle>
    <vehicle id="426" depart="170.40">
        <route edges="0:1 1:2 2:3 3:18"/>
    </vehicle>
    <vehicle id="428" depart="171.20">
        <route edges="17:16 16:3 3:2 2:1 1:0 0:10 10:11"/>
    </vehicle>
    <vehicle id="429" depart="171.60">
        <route edges="5:3 3:16 16:17"/>
    </vehicle>
    <vehicle id="431" depart="172.40">
        <route edges="11:10 10:0 0:8 8:9"/>
    </vehicle>
    <vehicle id="434" depart="173.60">
        <route edges="17:16 16:3 3:2 2:1 1:12 12:13"/>
    </vehicle>
    <vehicle id="435" depart="174.00">
        <route edges="15:14 14:2 2:3 3:5 5:7"/>
    </vehicle>
    <vehicle id="439" depart="175.60">
        <route edges="2:3"/>
    </vehicle>
    <vehicle id="441" depart="176.40">
        <route edges="15:14 14:2 2:1 1:0 0:4 4:6"/>
    </vehicle>
    <vehicle id="442" depart="176.80">
        <route edges="7:5 5:3 3:2 2:1 1:0 0:8 8:9"/>
    </vehicle>
    <vehicle id="443" depart="177.20">
        <route edges="3:2 2:1 1:0 0:10 10:11"/>
    </vehicle>
    <vehicle id="444" depart="177.60">
        <route edges="10:0 0:1 1:2 2:3 3:5 5:7"/>
    </vehicle>
    <vehicle id="449" depart="179.60">
        <route edges="19:18 18:3 3:2 2:1 1:0 0:10 10:11"/>
    </vehicle>
    <vehicle id="450" depart="180.00">
        <route edges="4:0 0:1 1:2 2:14 14:15"/>
    </vehicle>
    <vehicle id="451" depart="180.40">
        <route edges="17:16 16:3 3:2 2:1 1:0 0:8 8:9"/>
    </vehicle>
    <vehicle id="452" depart="180.80">
        <route edges="11:10 10:0 0:1 1:2 2:3 3:18"/>
    </vehicle>
    <vehicle id="453" depart="181.20">
        <route edges="8:0 0:1 1:2"/>
    </vehicle>
    <vehicle id="454" depart="181.60">
        <route edges="9:8 8:0 0:1 1:2 2:3 3:16 16:17"/>
    </vehicle>
    <vehicle id="455" depart="182.00">
        <route edges="19:18 18:3 3:2 2:14 14:15"/>
    </vehicle>
    <vehicle id="456" depart="182.40">
        <route edges="7:5 5:3"/>
    </vehicle>
    <vehicle id="458" depart="183.20">
        <route edges="0:1 1:2 2:3 3:5 5:7"/>
    </vehicle>
    <vehicle id="459" depart="183.60">
        <route edges="10:0 0:1 1:2 2:3 3:5 5:7"/>
    </vehicle>
    <vehicle id="462" depart="184.80">
        <route edges="4:0 0:1 1:2"/>
    </vehicle>
    <vehicle id="463" depart="185.20">
        <route edges="7:5 5:3"/>
    </vehicle>
    <vehicle id="464" depart="185.60">
        <route edges="0:10 10:11"/>
    </vehicle>
    <vehicle id="465" depart="186.00">
        <route edges="7:5 5:3 3:2 2:14"/>
    </vehicle>
    <vehicle id="466" depart="186.40">
        <route edges="7:5 5:3 3:2 2:14 14:15"/>
    </vehicle>
    <vehicle id="467" depart="186.80">
        <route edges="2:3"/>
    </vehicle>
    <vehicle id="468" depart="187.20">
        <route edges="14:2 2:1 1:0 0:4"/>
    </vehicle>
    <vehicle id="472" depart="188.80">
        <route edges="13:12 12:1 1:2 2:3 3:5"/>
    </vehicle>
    <vehicle id="473" depart="189.20">
        <route edges="6:4 4:0 0:1 1:2 2:3"/>
    </vehicle>
    <vehicle id="474" depart="189.60">
        <route edges="9:8 8:0 0:1 1:2 2:14"/>
    </vehicle>
    <vehicle id="475" depart="190.00">
        <route edges="6:4 4:0 0:1 1:2 2:3 3:5 5:7"/>
    </vehicle>
    <vehicle id="476" depart="190.40">
        <route edges="16:3 3:2 2:1 1:0 0:10 10:11"/>
    </vehicle>
    <vehicle id="477" depart="190.80">
        <route edges="1:2 2:3 3:16 16:17"/>
    </vehicle>
    <vehicle id="478" depart="191.20">
        <route edges="15:14 14:2 2:1 1:0 0:4 4:6"/>
    </vehicle>
    <vehicle id="480" depart="192.00">
        <route edges="13:12 12:1 1:2 2:3 3:5"/>
    </vehicle>
    <vehicle id="482" depart="192.80">
        <route edges="3:16"/>
    </vehicle>
    <vehicle id="483" depart="193.20">
        <route edges="7:5 5:3 3:2 2:1"/>
    </vehicle>
    <vehicle id="484" depart="193.60">
        <route edges="8:0 0:4 4:6"/>
    </vehicle>
    <vehicle id="486" depart="194.40">
        <route edges="13:12 12:1 1:0 0:8 8:9"/>
    </vehicle>
    <vehicle id="487" depart="194.80">
        <route edges="18:3 3:2 2:14 14:15"/>
    </vehicle>
    <vehicle id="488" depart="195.20">
        <route edges="6:4 4:0"/>
    </vehicle>
    <vehicle id="489" depart="195.60">
        <route edges="11:10 10:0 0:1 1:2 2:3 3:16 16:17"/>
    </vehicle>
    <vehicle id="491" depart="196.40">
        <route edges="7:5 5:3 3:2 2:1 1:0 0:4 4:6"/>
    </vehicle>
    <vehicle id="492" depart="196.80">
        <route edges="18:3 3:2 2:1 1:0 0:4 4:6"/>
    </vehicle>
    <vehicle id="493" depart="197.20">
        <route edges="6:4 4:0 0:1 1:12 12:13"/>
    </vehicle>
    <vehicle id="498" depart="199.20">
        <route edges="17:16 16:3 3:18"/>
    </vehicle>
    <vehicle id="499" depart="199.60">
        <route edges="19:18 18:3 3:5 5:7"/>
    </vehicle>
    <vehicle id="500" depart="200.00">
        <route edges="13:12 12:1 1:2 2:3 3:18 18:19"/>
    </vehicle>
    <vehicle id="503" depart="201.20">
        <route edges="17:16 16:3"/>
    </vehicle>
    <vehicle id="504" depart="201.60">
        <route edges="19:18 18:3 3:5 5:7"/>
    </vehicle>
    <vehicle id="508" depart="203.20">
        <route edges="1:0 0:4 4:6"/>
    </vehicle>
    <vehicle id="512" depart="204.80">
        <route edges="11:10 10:0 0:4"/>
    </vehicle>
    <vehicle id="515" depart="206.00">
        <route edges="17:16 16:3"/>
    </vehicle>