<?xml version="1.0" encoding="UTF-8"?>

<!-- generated on Thu Oct 23 22:34:09 2014 by SUMO duarouter Version 0.18.0
<?xml version="1.0" encoding="UTF-8"?>

<configuration xmlns:xsi="http://www.w3.org/2001/XMLSchema-instance" xsi:noNamespaceSchemaLocation="http://sumo.sf.net/xsd/duarouterConfiguration.xsd">

    <input>
        <net-file value="corridor.net.xml"/>
        <trip-files value="experimentos/corridor.p0.4.3.trips.xml"/>
    </input>

    <output>
        <output-file value="experimentos/corridor.p0.4.3.rou.xml"/>
    </output>

    <processing>
        <ignore-errors value="true"/>
    </processing>

    <random_number>
        <random value="true"/>
    </random_number>

</configuration>
-->

<routes xmlns:xsi="http://www.w3.org/2001/XMLSchema-instance" xsi:noNamespaceSchemaLocation="http://sumo.sf.net/xsd/routes_file.xsd">
    <vehicle id="2" depart="0.80">
        <route edges="11:10 10:0 0:8 8:9"/>
    </vehicle>
    <vehicle id="4" depart="1.60">
        <route edges="7:5 5:3 3:2 2:1"/>
    </vehicle>
    <vehicle id="6" depart="2.40">
        <route edges="17:16 16:3 3:2 2:1 1:12"/>
    </vehicle>
    <vehicle id="7" depart="2.80">
        <route edges="17:16 16:3 3:2 2:1 1:0 0:8 8:9"/>
    </vehicle>
    <vehicle id="8" depart="3.20">
        <route edges="7:5 5:3 3:2 2:1 1:12 12:13"/>
    </vehicle>
    <vehicle id="12" depart="4.80">
        <route edges="6:4 4:0 0:1 1:2"/>
    </vehicle>
    <vehicle id="13" depart="5.20">
        <route edges="13:12 12:1 1:2 2:14 14:15"/>
    </vehicle>
    <vehicle id="14" depart="5.60">
        <route edges="2:3 3:18"/>
    </vehicle>
    <vehicle id="18" depart="7.20">
        <route edges="5:3 3:2 2:1 1:0 0:10"/>
    </vehicle>
    <vehicle id="20" depart="8.00">
        <route edges="6:4 4:0 0:10 10:11"/>
    </vehicle>
    <vehicle id="21" depart="8.40">
        <route edges="11:10 10:0 0:1 1:2 2:14 14:15"/>
    </vehicle>
    <vehicle id="22" depart="8.80">
        <route edges="7:5 5:3 3:18 18:19"/>
    </vehicle>
    <vehicle id="24" depart="9.60">
        <route edges="12:1 1:2 2:3 3:5"/>
    </vehicle>
    <vehicle id="25" depart="10.00">
        <route edges="15:14 14:2 2:3 3:16 16:17"/>
    </vehicle>
    <vehicle id="26" depart="10.40">
        <route edges="9:8 8:0 0:1 1:2 2:3 3:5 5:7"/>
    </vehicle>
    <vehicle id="27" depart="10.80">
        <route edges="17:16 16:3 3:5 5:7"/>
    </vehicle>
    <vehicle id="28" depart="11.20">
        <route edges="6:4 4:0 0:10 10:11"/>
    </vehicle>
    <vehicle id="29" depart="11.60">
        <route edges="19:18 18:3 3:2 2:1 1:0 0:8"/>
    </vehicle>
    <vehicle id="30" depart="12.00">
        <route edges="6:4 4:0 0:1 1:2 2:3 3:18 18:19"/>
    </vehicle>
    <vehicle id="32" depart="12.80">
        <route edges="13:12 12:1 1:2 2:3"/>
    </vehicle>
    <vehicle id="33" depart="13.20">
        <route edges="7:5 5:3 3:2 2:1 1:0 0:4 4:6"/>
    </vehicle>
    <vehicle id="37" depart="14.80">
        <route edges="15:14 14:2 2:1 1:0 0:10 10:11"/>
    </vehicle>
    <vehicle id="38" depart="15.20">
        <route edges="2:3 3:5 5:7"/>
    </vehicle>
    <vehicle id="39" depart="15.60">
        <route edges="5:3"/>
    </vehicle>
    <vehicle id="40" depart="16.00">
        <route edges="5:3 3:18 18:19"/>
    </vehicle>
    <vehicle id="41" depart="16.40">
        <route edges="9:8 8:0 0:1 1:2 2:3 3:5 5:7"/>
    </vehicle>
    <vehicle id="43" depart="17.20">
        <route edges="9:8 8:0 0:1 1:2 2:3 3:18 18:19"/>
    </vehicle>
    <vehicle id="44" depart="17.60">
        <route edges="7:5 5:3 3:2"/>
    </vehicle>
    <vehicle id="45" depart="18.00">
        <route edges="11:10 10:0 0:1 1:2 2:14 14:15"/>
    </vehicle>
    <vehicle id="46" depart="18.40">
        <route edges="11:10 10:0 0:1 1:12 12:13"/>
    </vehicle>
    <vehicle id="47" depart="18.80">
        <route edges="3:2 2:1 1:0 0:8 8:9"/>
    </vehicle>
    <vehicle id="48" depart="19.20">
        <route edges="17:16 16:3 3:2 2:1 1:0 0:4"/>
    </vehicle>
    <vehicle id="49" depart="19.60">
        <route edges="17:16 16:3 3:2 2:1 1:0 0:4 4:6"/>
    </vehicle>
    <vehicle id="50" depart="20.00">
        <route edges="7:5 5:3 3:2 2:14 14:15"/>
    </vehicle>
    <vehicle id="51" depart="20.40">
        <route edges="19:18 18:3 3:5 5:7"/>
    </vehicle>
    <vehicle id="54" depart="21.60">
        <route edges="11:10 10:0 0:1 1:2 2:3 3:5 5:7"/>
    </vehicle>
    <vehicle id="57" depart="22.80">
        <route edges="6:4 4:0"/>
    </vehicle>
    <vehicle id="63" depart="25.20">
        <route edges="4:0 0:8"/>
    </vehicle>
    <vehicle id="65" depart="26.00">
        <route edges="18:3 3:16 16:17"/>
    </vehicle>
    <vehicle id="67" depart="26.80">
        <route edges="5:3 3:18"/>
    </vehicle>
    <vehicle id="68" depart="27.20">
        <route edges="7:5 5:3 3:2 2:1 1:0 0:4"/>
    </vehicle>
    <vehicle id="71" depart="28.40">
        <route edges="13:12 12:1 1:2 2:3 3:16 16:17"/>
    </vehicle>
    <vehicle id="75" depart="30.00">
        <route edges="12:1 1:2 2:14 14:15"/>
    </vehicle>
    <vehicle id="78" depart="31.20">
        <route edges="0:1 1:2 2:3 3:18"/>
    </vehicle>
    <vehicle id="79" depart="31.60">
        <route edges="19:18 18:3 3:5 5:7"/>
    </vehicle>
    <vehicle id="80" depart="32.00">
        <route edges="4:0 0:1 1:2 2:3 3:18 18:19"/>
    </vehicle>
    <vehicle id="81" depart="32.40">
        <route edges="7:5 5:3 3:16"/>
    </vehicle>
    <vehicle id="84" depart="33.60">
        <route edges="19:18 18:3 3:2 2:1 1:0 0:4 4:6"/>
    </vehicle>
    <vehicle id="88" depart="35.20">
        <route edges="6:4 4:0 0:8"/>
    </vehicle>
    <vehicle id="89" depart="35.60">
        <route edges="17:16 16:3 3:18 18:19"/>
    </vehicle>
    <vehicle id="90" depart="36.00">
        <route edges="12:1 1:0 0:10 10:11"/>
    </vehicle>
    <vehicle id="91" depart="36.40">
        <route edges="6:4 4:0 0:10"/>
    </vehicle>
    <vehicle id="93" depart="37.20">
        <route edges="7:5 5:3 3:18 18:19"/>
    </vehicle>
    <vehicle id="94" depart="37.60">
        <route edges="1:0 0:8 8:9"/>
    </vehicle>
    <vehicle id="96" depart="38.40">
        <route edges="19:18 18:3"/>
    </vehicle>
    <vehicle id="99" depart="39.60">
        <route edges="13:12 12:1 1:0 0:4 4:6"/>
    </vehicle>
    <vehicle id="101" depart="40.40">
        <route edges="4:0 0:8"/>
    </vehicle>
    <vehicle id="103" depart="41.20">
        <route edges="6:4 4:0 0:1 1:12 12:13"/>
    </vehicle>
    <vehicle id="107" depart="42.80">
        <route edges="17:16 16:3 3:5 5:7"/>
    </vehicle>
    <vehicle id="108" depart="43.20">
        <route edges="19:18 18:3"/>
    </vehicle>
    <vehicle id="111" depart="44.40">
        <route edges="6:4 4:0 0:1 1:2 2:3 3:16 16:17"/>
    </vehicle>
    <vehicle id="112" depart="44.80">
        <route edges="2:1 1:0 0:8 8:9"/>
    </vehicle>
    <vehicle id="116" depart="46.40">
        <route edges="14:2 2:3 3:18 18:19"/>
    </vehicle>
    <vehicle id="118" depart="47.20">
        <route edges="8:0 0:1 1:12"/>
    </vehicle>
    <vehicle id="119" depart="47.60">
        <route edges="19:18 18:3 3:2 2:1 1:0 0:8 8:9"/>
    </vehicle>
    <vehicle id="120" depart="48.00">
        <route edges="6:4 4:0 0:10"/>
    </vehicle>
    <vehicle id="122" depart="48.80">
        <route edges="14:2 2:1 1:0 0:4 4:6"/>
    </vehicle>
    <vehicle id="124" depart="49.60">
        <route edges="8:0 0:4 4:6"/>
    </vehicle>
    <vehicle id="125" depart="50.00">
        <route edges="17:16 16:3 3:2 2:1 1:0 0:8"/>
    </vehicle>
    <vehicle id="126" depart="50.40">
        <route edges="3:2 2:14"/>
    </vehicle>
    <vehicle id="129" depart="51.60">
        <route edges="15:14 14:2 2:1 1:0 0:10"/>
    </vehicle>
    <vehicle id="130" depart="52.00">
        <route edges="12:1 1:0 0:4"/>
    </vehicle>
    <vehicle id="131" depart="52.40">
        <route edges="6:4 4:0 0:1 1:2"/>
    </vehicle>
    <vehicle id="132" depart="52.80">
        <route edges="12:1 1:0 0:4"/>
    </vehicle>
    <vehicle id="133" depart="53.20">
        <route edges="0:4 4:6"/>
    </vehicle>
    <vehicle id="135" depart="54.00">
        <route edges="19:18 18:3 3:5 5:7"/>
    </vehicle>
    <vehicle id="138" depart="55.20">
        <route edges="8:0 0:1 1:2 2:3 3:18 18:19"/>
    </vehicle>
    <vehicle id="139" depart="55.60">
        <route edges="1:2 2:14 14:15"/>
    </vehicle>
    <vehicle id="143" depart="57.20">
        <route edges="7:5 5:3 3:18 18:19"/>
    </vehicle>
    <vehicle id="144" depart="57.60">
        <route edges="3:16 16:17"/>
    </vehicle>
    <vehicle id="145" depart="58.00">
        <route edges="2:3 3:16 16:17"/>
    </vehicle>
    <vehicle id="147" depart="58.80">
        <route edges="7:5 5:3 3:2 2:1 1:0 0:4"/>
    </vehicle>
    <vehicle id="148" depart="59.20">
        <route edges="7:5 5:3 3:2 2:1 1:12 12:13"/>
    </vehicle>
    <vehicle id="149" depart="59.60">
        <route edges="9:8 8:0"/>
    </vehicle>
    <vehicle id="154" depart="61.60">
        <route edges="7:5 5:3 3:2 2:14 14:15"/>
    </vehicle>
    <vehicle id="155" depart="62.00">
        <route edges="11:10 10:0 0:1 1:2 2:3 3:5 5:7"/>
    </vehicle>
    <vehicle id="158" depart="63.20">
        <route edges="7:5 5:3 3:2 2:1 1:0 0:4 4:6"/>
    </vehicle>
    <vehicle id="159" depart="63.60">
        <route edges="15:14 14:2 2:3 3:5"/>
    </vehicle>
    <vehicle id="160" depart="64.00">
        <route edges="15:14 14:2 2:1 1:12 12:13"/>
    </vehicle>
    <vehicle id="161" depart="64.40">
        <route edges="4:0 0:1 1:2 2:3"/>
    </vehicle>
    <vehicle id="162" depart="64.80">
        <route edges="7:5 5:3 3:16"/>
    </vehicle>
    <vehicle id="163" depart="65.20">
        <route edges="7:5 5:3 3:2 2:1 1:0 0:4 4:6"/>
    </vehicle>
    <vehicle id="165" depart="66.00">
        <route edges="11:10 10:0"/>
    </vehicle>
    <vehicle id="166" depart="66.40">
        <route edges="4:0 0:10 10:11"/>
    </vehicle>
    <vehicle id="167" depart="66.80">
        <route edges="17:16 16:3 3:2 2:1"/>
    </vehicle>
    <vehicle id="168" depart="67.20">
        <route edges="1:2 2:3 3:5 5:7"/>
    </vehicle>
    <vehicle id="169" depart="67.60">
        <route edges="7:5 5:3 3:2 2:1 1:0 0:4 4:6"/>
    </vehicle>
    <vehicle id="170" depart="68.00">
        <route edges="15:14 14:2 2:3 3:5"/>
    </vehicle>
    <vehicle id="171" depart="68.40">
        <route edges="7:5 5:3 3:18 18:19"/>
    </vehicle>
    <vehicle id="173" depart="69.20">
        <route edges="9:8 8:0 0:4 4:6"/>
    </vehicle>
    <vehicle id="175" depart="70.00">
        <route edges="6:4 4:0 0:1 1:2"/>
    </vehicle>
    <vehicle id="176" depart="70.40">
        <route edges="13:12 12:1 1:0 0:4 4:6"/>
    </vehicle>
    <vehicle id="177" depart="70.80">
        <route edges="19:18 18:3 3:2 2:1 1:0 0:8"/>
    </vehicle>
    <vehicle id="185" depart="74.00">
        <route edges="16:3 3:2"/>
    </vehicle>
    <vehicle id="187" depart="74.80">
        <route edges="19:18 18:3 3:2 2:1 1:0 0:8 8:9"/>
    </vehicle>
    <vehicle id="188" depart="75.20">
        <route edges="2:1 1:0 0:8"/>
    </vehicle>
    <vehicle id="189" depart="75.60">
        <route edges="6:4 4:0 0:1 1:2 2:3 3:16 16:17"/>
    </vehicle>
    <vehicle id="192" depart="76.80">
        <route edges="11:10 10:0 0:1 1:2 2:14 14:15"/>
    </vehicle>
    <vehicle id="193" depart="77.20">
        <route edges="7:5 5:3 3:2 2:1 1:12 12:13"/>
    </vehicle>
    <vehicle id="194" depart="77.60">
        <route edges="17:16 16:3 3:2 2:1 1:12 12:13"/>
    </vehicle>
    <vehicle id="195" depart="78.00">
        <route edges="0:1 1:2 2:3 3:5 5:7"/>
    </vehicle>
    <vehicle id="196" depart="78.40">
        <route edges="0:1 1:2 2:3 3:5 5:7"/>
    </vehicle>
    <vehicle id="197" depart="78.80">
        <route edges="18:3 3:2 2:14 14:15"/>
    </vehicle>
    <vehicle id="198" depart="79.20">
        <route edges="1:0 0:4 4:6"/>
    </vehicle>
    <vehicle id="199" depart="79.60">
        <route edges="15:14 14:2 2:1 1:12 12:13"/>
    </vehicle>
    <vehicle id="201" depart="80.40">
        <route edges="19:18 18:3 3:2 2:1 1:0 0:4 4:6"/>
    </vehicle>
    <vehicle id="203" depart="81.20">
        <route edges="6:4 4:0 0:1 1:2 2:3"/>
    </vehicle>
    <vehicle id="205" depart="82.00">
        <route edges="3:2 2:1 1:12 12:13"/>
    </vehicle>
    <vehicle id="206" depart="82.40">
        <route edges="18:3 3:2 2:1"/>
    </vehicle>
    <vehicle id="207" depart="82.80">
        <route edges="15:14 14:2 2:3 3:18 18:19"/>
    </vehicle>
    <vehicle id="208" depart="83.20">
        <route edges="6:4 4:0 0:1 1:2 2:3 3:5 5:7"/>
    </vehicle>
    <vehicle id="213" depart="85.20">
        <route edges="3:2 2:1 1:0"/>
    </vehicle>
    <vehicle id="215" depart="86.00">
        <route edges="13:12 12:1 1:2 2:3 3:18 18:19"/>
    </vehicle>
    <vehicle id="218" depart="87.20">
        <route edges="7:5 5:3 3:2 2:1 1:0"/>
    </vehicle>
    <vehicle id="219" depart="87.60">
        <route edges="19:18 18:3 3:2 2:1 1:0 0:4 4:6"/>
    </vehicle>
    <vehicle id="220" depart="88.00">
        <route edges="11:10 10:0 0:1 1:2 2:3 3:18 18:19"/>
    </vehicle>
    <vehicle id="221" depart="88.40">
        <route edges="6:4 4:0"/>
    </vehicle>
    <vehicle id="225" depart="90.00">
        <route edges="7:5 5:3 3:16 16:17"/>
    </vehicle>
    <vehicle id="226" depart="90.40">
        <route edges="5:3 3:2 2:1 1:0 0:4 4:6"/>
    </vehicle>
    <vehicle id="228" depart="91.20">
        <route edges="11:10 10:0 0:1 1:12 12:13"/>
    </vehicle>
    <vehicle id="229" depart="91.60">
        <route edges="6:4 4:0 0:8 8:9"/>
    </vehicle>
    <vehicle id="232" depart="92.80">
        <route edges="2:1 1:0"/>
    </vehicle>
    <vehicle id="235" depart="94.00">
        <route edges="14:2 2:1 1:0 0:4"/>
    </vehicle>
    <vehicle id="236" depart="94.40">
        <route edges="6:4 4:0 0:1 1:2 2:3"/>
    </vehicle>
    <vehicle id="237" depart="94.80">
        <route edges="15:14 14:2 2:1 1:0 0:4 4:6"/>
    </vehicle>
    <vehicle id="238" depart="95.20">
        <route edges="7:5 5:3 3:18 18:19"/>
    </vehicle>
    <vehicle id="239" depart="95.60">
        <route edges="13:12 12:1 1:2"/>
    </vehicle>
    <vehicle id="241" depart="96.40">
        <route edges="2:3 3:5 5:7"/>
    </vehicle>
    <vehicle id="244" depart="97.60">
        <route edges="4:0 0:1 1:2 2:3 3:5 5:7"/>
    </vehicle>
    <vehicle id="245" depart="98.00">
        <route edges="7:5 5:3 3:18 18:19"/>
    </vehicle>
    <vehicle id="246" depart="98.40">
        <route edges="13:12 12:1 1:0 0:4"/>
    </vehicle>
    <vehicle id="247" depart="98.80">
        <route edges="7:5 5:3 3:2 2:1 1:0 0:10 10:11"/>
    </vehicle>
    <vehicle id="249" depart="99.60">
        <route edges="0:10 10:11"/>
    </vehicle>
    <vehicle id="252" depart="100.80">
        <route edges="6:4 4:0 0:1 1:2 2:3 3:5 5:7"/>
    </vehicle>
    <vehicle id="253" depart="101.20">
        <route edges="11:10 10:0 0:4 4:6"/>
    </vehicle>
    <vehicle id="256" depart="102.40">
        <route edges="2:3 3:5 5:7"/>
    </vehicle>
    <vehicle id="257" depart="102.80">
        <route edges="17:16 16:3 3:2 2:1 1:0 0:4 4:6"/>
    </vehicle>
    <vehicle id="261" depart="104.40">
        <route edges="17:16 16:3 3:18 18:19"/>
    </vehicle>
    <vehicle id="262" depart="104.80">
        <route edges="7:5 5:3 3:2 2:1 1:0 0:8 8:9"/>
    </vehicle>
    <vehicle id="264" depart="105.60">
        <route edges="19:18 18:3 3:2 2:1 1:0"/>
    </vehicle>
    <vehicle id="266" depart="106.40">
        <route edges="5:3 3:2 2:1"/>
    </vehicle>
    <vehicle id="269" depart="107.60">
        <route edges="9:8 8:0 0:4 4:6"/>
    </vehicle>
    <vehicle id="271" depart="108.40">
        <route edges="3:2 2:1 1:0 0:4"/>
    </vehicle>
    <vehicle id="272" depart="108.80">
        <route edges="1:0"/>
    </vehicle>
    <vehicle id="273" depart="109.20">
        <route edges="6:4 4:0 0:10 10:11"/>
    </vehicle>
    <vehicle id="275" depart="110.00">
        <route edges="2:3 3:18 18:19"/>
    </vehicle>
    <vehicle id="277" depart="110.80">
        <route edges="7:5 5:3 3:2 2:1 1:0 0:8 8:9"/>
    </vehicle>
    <vehicle id="278" depart="111.20">
        <route edges="7:5 5:3 3:2"/>
    </vehicle>
    <vehicle id="279" depart="111.60">
        <route edges="15:14 14:2 2:3 3:5"/>
    </vehicle>
    <vehicle id="280" depart="112.00">
        <route edges="6:4 4:0 0:8"/>
    </vehicle>
    <vehicle id="281" depart="112.40">
        <route edges="7:5 5:3 3:2 2:1 1:0 0:10 10:11"/>
    </vehicle>
    <vehicle id="283" depart="113.20">
        <route edges="18:3 3:5 5:7"/>
    </vehicle>
    <vehicle id="284" depart="113.60">
        <route edges="11:10 10:0 0:1 1:2 2:14 14:15"/>
    </vehicle>
    <vehicle id="285" depart="114.00">
        <route edges="17:16 16:3 3:2 2:14 14:15"/>
    </vehicle>
    <vehicle id="286" depart="114.40">
        <route edges="3:2 2:1 1:0 0:4 4:6"/>
    </vehicle>
    <vehicle id="288" depart="115.20">
        <route edges="13:12 12:1 1:2 2:3 3:16"/>
    </vehicle>
    <vehicle id="289" depart="115.60">
        <route edges="6:4 4:0 0:1 1:2 2:3 3:18 18:19"/>
    </vehicle>
    <vehicle id="290" depart="116.00">
        <route edges="17:16 16:3 3:2 2:1 1:12 12:13"/>
    </vehicle>
    <vehicle id="291" depart="116.40">
        <route edges="6:4 4:0 0:8 8:9"/>
    </vehicle>
    <vehicle id="294" depart="117.60">
        <route edges="6:4 4:0 0:1 1:2 2:14 14:15"/>
    </vehicle>
    <vehicle id="295" depart="118.00">
        <route edges="0:1 1:12 12:13"/>
    </vehicle>
    <vehicle id="296" depart="118.40">
        <route edges="18:3 3:2"/>
    </vehicle>
    <vehicle id="297" depart="118.80">
        <route edges="17:16 16:3 3:2 2:1 1:0"/>
    </vehicle>
    <vehicle id="298" depart="119.20">
        <route edges="19:18 18:3 3:2 2:1 1:12 12:13"/>
    </vehicle>
    <vehicle id="300" depart="120.00">
        <route edges="6:4 4:0 0:1 1:2 2:3"/>
    </vehicle>
    <vehicle id="302" depart="120.80">
        <route edges="1:2 2:14 14:15"/>
    </vehicle>
    <vehicle id="304" depart="121.60">
        <route edges="14:2 2:3 3:5 5:7"/>
    </vehicle>
    <vehicle id="307" depart="122.80">
        <route edges="15:14 14:2 2:1 1:0 0:4 4:6"/>
    </vehicle>
    <vehicle id="308" depart="123.20">
        <route edges="2:3 3:16 16:17"/>
    </vehicle>
    <vehicle id="311" depart="124.40">
        <route edges="12:1 1:2 2:3 3:18"/>
    </vehicle>
    <vehicle id="312" depart="124.80">
        <route edges="9:8 8:0 0:1 1:2 2:14"/>
    </vehicle>
    <vehicle id="316" depart="126.40">
        <route edges="6:4 4:0 0:1 1:2 2:3 3:5 5:7"/>
    </vehicle>
    <vehicle id="317" depart="126.80">
        <route edges="7:5 5:3 3:2 2:14 14:15"/>
    </vehicle>
    <vehicle id="319" depart="127.60">
        <route edges="6:4 4:0 0:1 1:2 2:3"/>
    </vehicle>
    <vehicle id="320" depart="128.00">
        <route edges="15:14 14:2 2:1 1:12 12:13"/>
    </vehicle>
    <vehicle id="321" depart="128.40">
        <route edges="2:1 1:0 0:4 4:6"/>
    </vehicle>
    <vehicle id="324" depart="129.60">
        <route edges="14:2 2:1 1:0 0:4"/>
    </vehicle>
    <vehicle id="325" depart="130.00">
        <route edges="5:3 3:2 2:1 1:12 12:13"/>
    </vehicle>
    <vehicle id="326" depart="130.40">
        <route edges="7:5 5:3 3:2 2:1 1:12"/>
    </vehicle>
    <vehicle id="327" depart="130.80">
        <route edges="3:2 2:1 1:12 12:13"/>
    </vehicle>
    <vehicle id="329" depart="131.60">
        <route edges="4:0 0:1 1:12 12:13"/>
    </vehicle>
    <vehicle id="333" depart="133.20">
        <route edges="11:10 10:0 0:1 1:2 2:3 3:18 18:19"/>
    </vehicle>
    <vehicle id="334" depart="133.60">
        <route edges="17:16 16:3 3:5 5:7"/>
    </vehicle>
    <vehicle id="337" depart="134.80">
        <route edges="6:4 4:0 0:1 1:2 2:3 3:18 18:19"/>
    </vehicle>
    <vehicle id="338" depart="135.20">
        <route edges="3:2 2:1 1:0"/>
    </vehicle>
    <vehicle id="339" depart="135.60">
        <route edges="18:3 3:5 5:7"/>
    </vehicle>
    <vehicle id="341" depart="136.40">
        <route edges="10:0 0:1 1:2 2:3 3:16 16:17"/>
    </vehicle>
    <vehicle id="343" depart="137.20">
        <route edges="2:1 1:0 0:4 4:6"/>
    </vehicle>
    <vehicle id="344" depart="137.60">
        <route edges="7:5 5:3 3:2 2:1 1:0 0:8"/>
    </vehicle>
    <vehicle id="346" depart="138.40">
        <route edges="15:14 14:2 2:3 3:5 5:7"/>
    </vehicle>
    <vehicle id="347" depart="138.80">
        <route edges="9:8 8:0 0:4"/>
    </vehicle>
    <vehicle id="348" depart="139.20">
        <route edges="17:16 16:3 3:2 2:14 14:15"/>
    </vehicle>
    <vehicle id="349" depart="139.60">
        <route edges="11:10 10:0 0:1 1:2 2:3 3:5 5:7"/>
    </vehicle>
    <vehicle id="350" depart="140.00">
        <route edges="7:5 5:3 3:2 2:14"/>
    </vehicle>
    <vehicle id="351" depart="140.40">
        <route edges="8:0 0:10 10:11"/>
    </vehicle>
    <vehicle id="352" depart="140.80">
        <route edges="11:10 10:0 0:1 1:12 12:13"/>
    </vehicle>
    <vehicle id="353" depart="141.20">
        <route edges="19:18 18:3 3:16 16:17"/>
    </vehicle>
    <vehicle id="358" depart="143.20">
        <route edges="15:14 14:2 2:3"/>
    </vehicle>
    <vehicle id="360" depart="144.00">
        <route edges="15:14 14:2 2:1 1:0 0:10 10:11"/>
    </vehicle>
    <vehicle id="361" depart="144.40">
        <route edges="7:5 5:3 3:16"/>
    </vehicle>
    <vehicle id="363" depart="145.20">
        <route edges="9:8 8:0 0:4 4:6"/>
    </vehicle>
    <vehicle id="364" depart="145.60">
        <route edges="17:16 16:3 3:2"/>
    </vehicle>
    <vehicle id="365" depart="146.00">
        <route edges="17:16 16:3 3:2 2:14 14:15"/>
    </vehicle>
    <vehicle id="366" depart="146.40">
        <route edges="6:4 4:0 0:1 1:2 2:3 3:5"/>
    </vehicle>
    <vehicle id="368" depart="147.20">
        <route edges="13:12 12:1 1:0 0:4 4:6"/>
    </vehicle>
    <vehicle id="372" depart="148.80">
        <route edges="7:5 5:3 3:2 2:1 1:0 0:4"/>
    </vehicle>
    <vehicle id="373" depart="149.20">
        <route edges="9:8 8:0 0:1 1:2 2:3"/>
    </vehicle>
    <vehicle id="374" depart="149.60">
        <route edges="17:16 16:3 3:2 2:14 14:15"/>
    </vehicle>
    <vehicle id="375" depart="150.00">
        <route edges="7:5 5:3 3:2 2:1 1:0 0:8"/>
    </vehicle>
    <vehicle id="376" depart="150.40">
        <route edges="15:14 14:2 2:3 3:18 18:19"/>
    </vehicle>
    <vehicle id="377" depart="150.80">
        <route edges="6:4 4:0 0:1"/>
    </vehicle>
    <vehicle id="378" depart="151.20">
        <route edges="15:14 14:2 2:3 3:5"/>
    </vehicle>
    <vehicle id="381" depart="152.40">
        <route edges="9:8 8:0 0:1 1:2 2:3 3:16 16:17"/>
    </vehicle>
    <vehicle id="382" depart="152.80">
        <route edges="8:0 0:4 4:6"/>
    </vehicle>
    <vehicle id="383" depart="153.20">
        <route edges="6:4 4:0 0:1 1:2 2:14"/>
    </vehicle>
    <vehicle id="386" depart="154.40">
        <route edges="0:1 1:2 2:3 3:16 16:17"/>
    </vehicle>
    <vehicle id="387" depart="154.80">
        <route edges="6:4 4:0 0:1 1:2 2:14 14:15"/>
    </vehicle>
    <vehicle id="389" depart="155.60">
        <route edges="19:18 18:3 3:2 2:1 1:0 0:4 4:6"/>
    </vehicle>
    <vehicle id="390" depart="156.00">
        <route edges="17:16 16:3 3:18 18:19"/>
    </vehicle>
    <vehicle id="394" depart="157.60">
        <route edges="7:5 5:3 3:2 2:1 1:0 0:4"/>
    </vehicle>
    <vehicle id="395" depart="158.00">
        <route edges="7:5 5:3 3:18 18:19"/>
    </vehicle>
    <vehicle id="396" depart="158.40">
        <route edges="7:5 5:3 3:2 2:1 1:0 0:4 4:6"/>
    </vehicle>
    <vehicle id="401" depart="160.40">
        <route edges="5:3 3:2 2:1 1:0 0:4 4:6"/>
    </vehicle>
    <vehicle id="404" depart="161.60">
        <route edges="17:16 16:3 3:2 2:14 14:15"/>
    </vehicle>
    <vehicle id="405" depart="162.00">
        <route edges="9:8 8:0 0:4 4:6"/>
    </vehicle>
    <vehicle id="409" depart="163.60">
        <route edges="9:8 8:0 0:1 1:2 2:3 3:18 18:19"/>
    </vehicle>
    <vehicle id="410" depart="164.00">
        <route edges="5:3 3:16"/>
    </vehicle>
    <vehicle id="411" depart="164.40">
        <route edges="7:5 5:3 3:2 2:1 1:0 0:4"/>
    </vehicle>
    <vehicle id="413" depart="165.20">
        <route edges="3:2"/>
    </vehicle>
    <vehicle id="415" depart="166.00">
        <route edges="7:5 5:3 3:2 2:1 1:0 0:4 4:6"/>
    </vehicle>
    <vehicle id="419" depart="167.60">
        <route edges="19:18 18:3 3:2 2:1 1:12"/>
    </vehicle>
    <vehicle id="422" depart="168.80">
        <route edges="4:0 0:1 1:2 2:3 3:18"/>
    </vehicle>
    <vehicle id="424" depart="169.60">
        <route edges="3:2 2:1 1:12 12:13"/>
    </vehicle>
    <vehicle id="425" depart="170.00">
        <route edges="4:0 0:1 1:2 2:3 3:18 18:19"/>
    </vehicle>
    <vehicle id="427" depart="170.80">
        <route edges="13:12 12:1 1:0 0:4 4:6"/>
    </vehicle>
    <vehicle id="429" depart="171.60">
        <route edges="17:16 16:3 3:2 2:1 1:12 12:13"/>
    </vehicle>
    <vehicle id="433" depart="173.20">
        <route edges="17:16 16:3 3:18 18:19"/>
    </vehicle>
    <vehicle id="436" depart="174.40">
        <route edges="17:16 16:3 3:2 2:1 1:12 12:13"/>
    </vehicle>
    <vehicle id="437" depart="174.80">
        <route edges="13:12 12:1 1:0 0:10 10:11"/>
    </vehicle>
    <vehicle id="440" depart="176.00">
        <route edges="7:5 5:3 3:2 2:1 1:0 0:4 4:6"/>
    </vehicle>
    <vehicle id="441" depart="176.40">
        <route edges="17:16 16:3 3:2 2:1 1:0 0:8"/>
    </vehicle>
    <vehicle id="443" depart="177.20">
        <route edges="9:8 8:0 0:4 4:6"/>
    </vehicle>
    <vehicle id="444" depart="177.60">
        <route edges="6:4 4:0 0:1 1:2 2:3 3:5"/>
    </vehicle>
    <vehicle id="445" depart="178.00">
        <route edges="3:2 2:1 1:0"/>
    </vehicle>
    <vehicle id="446" depart="178.40">
        <route edges="0:1 1:2"/>
    </vehicle>
    <vehicle id="447" depart="178.80">
        <route edges="6:4 4:0 0:8"/>
    </vehicle>
    <vehicle id="448" depart="179.20">
        <route edges="17:16 16:3 3:2 2:1 1:0 0:8 8:9"/>
    </vehicle>
    <vehicle id="449" depart="179.60">
        <route edges="4:0 0:10 10:11"/>
    </vehicle>
    <vehicle id="450" depart="180.00">
        <route edges="11:10 10:0 0:4"/>
    </vehicle>
    <vehicle id="452" depart="180.80">
        <route edges="13:12 12:1 1:2 2:3 3:16 16:17"/>
    </vehicle>
    <vehicle id="453" depart="181.20">
        <route edges="17:16 16:3 3:2 2:1 1:0 0:10 10:11"/>
    </vehicle>
    <vehicle id="454" depart="181.60">
        <route edges="1:0 0:8 8:9"/>
    </vehicle>
    <vehicle id="455" depart="182.00">
        <route edges="2:1 1:12"/>
    </vehicle>
    <vehicle id="457" depart="182.80">
        <route edges="15:14 14:2 2:3 3:5 5:7"/>
    </vehicle>
    <vehicle id="458" depart="183.20">
        <route edges="16:3 3:2"/>
    </vehicle>
    <vehicle id="459" depart="183.60">
        <route edges="4:0 0:1 1:2 2:14 14:15"/>
    </vehicle>
    <vehicle id="466" depart="186.40">
        <route edges="17:16 16:3 3:5 5:7"/>
    </vehicle>
    <vehicle id="467" depart="186.80">
        <route edges="11:10 10:0 0:1 1:2 2:3 3:5"/>
    </vehicle>
    <vehicle id="468" depart="187.20">
        <route edges="7:5 5:3 3:2 2:1 1:12 12:13"/>
    </vehicle>
    <vehicle id="469" depart="187.60">
        <route edges="6:4 4:0 0:1"/>
    </vehicle>
    <vehicle id="470" depart="188.00">
        <route edges="2:3 3:5 5:7"/>
    </vehicle>
    <vehicle id="471" depart="188.40">
        <route edges="4:0 0:1 1:12 12:13"/>
    </vehicle>
    <vehicle id="475" depart="190.00">
        <route edges="13:12 12:1 1:2 2:3"/>
    </vehicle>
    <vehicle id="476" depart="190.40">
        <route edges="19:18 18:3 3:5 5:7"/>
    </vehicle>
    <vehicle id="477" depart="190.80">
        <route edges="11:10 10:0 0:1 1:2 2:3 3:5 5:7"/>
    </vehicle>
    <vehicle id="478" depart="191.20">
        <route edges="6:4 4:0"/>
    </vehicle>
    <vehicle id="479" depart="191.60">
        <route edges="13:12 12:1 1:0 0:4"/>
    </vehicle>
    <vehicle id="480" depart="192.00">
        <route edges="17:16 16:3 3:2 2:1 1:0 0:8 8:9"/>
    </vehicle>
    <vehicle id="484" depart="193.60">
        <route edges="7:5 5:3 3:2"/>
    </vehicle>
    <vehicle id="485" depart="194.00">
        <route edges="4:0 0:1 1:2 2:3"/>
    </vehicle>
    <vehicle id="487" depart="194.80">
        <route edges="7:5 5:3 3:2 2:1"/>
    </vehicle>
    <vehicle id="488" depart="195.20">
        <route edges="10:0 0:1"/>
    </vehicle>
    <vehicle id="489" depart="195.60">
        <route edges="2:3 3:5 5:7"/>
    </vehicle>
    <vehicle id="490" depart="196.00">
        <route edges="13:12 12:1 1:2 2:3 3:18 18:19"/>
    </vehicle>
    <vehicle id="494" depart="197.60">
        <route edges="16:3 3:2 2:1 1:0 0:8"/>
    </vehicle>
    <vehicle id="495" depart="198.00">
        <route edges="9:8 8:0 0:1 1:2 2:14"/>
    </vehicle>
    <vehicle id="496" depart="198.40">
        <route edges="13:12 12:1 1:0 0:4 4:6"/>
    </vehicle>
    <vehicle id="497" depart="198.80">
        <route edges="13:12 12:1 1:2 2:3 3:5 5:7"/>
    </vehicle>
    <vehicle id="499" depart="199.60">
        <route edges="9:8 8:0 0:1 1:2 2:14 14:15"/>
    </vehicle>
    <vehicle id="501" depart="200.40">
        <route edges="7:5 5:3"/>
    </vehicle>
    <vehicle id="502" depart="200.80">
        <route edges="6:4 4:0 0:1 1:2 2:3 3:5 5:7"/>
    </vehicle>
    <vehicle id="503" depart="201.20">
        <route edges="10:0 0:1"/>
    </vehicle>
    <vehicle id="504" depart="201.60">
        <route edges="1:0 0:10 10:11"/>
    </vehicle>
    <vehicle id="506" depart="202.40">
        <route edges="5:3 3:2 2:1 1:12 12:13"/>
    </vehicle>
    <vehicle id="507" depart="202.80">
        <route edges="11:10 10:0 0:1 1:2 2:3"/>
    </vehicle>