<?xml version="1.0" encoding="UTF-8"?>

<!-- generated on Thu Oct 23 22:33:16 2014 by SUMO duarouter Version 0.18.0
<?xml version="1.0" encoding="UTF-8"?>

<configuration xmlns:xsi="http://www.w3.org/2001/XMLSchema-instance" xsi:noNamespaceSchemaLocation="http://sumo.sf.net/xsd/duarouterConfiguration.xsd">

    <input>
        <net-file value="corridor.net.xml"/>
        <trip-files value="experimentos/corridor.p0.1.3.trips.xml"/>
    </input>

    <output>
        <output-file value="experimentos/corridor.p0.1.3.rou.xml"/>
    </output>

    <processing>
        <ignore-errors value="true"/>
    </processing>

    <random_number>
        <random value="true"/>
    </random_number>

</configuration>
-->

<routes xmlns:xsi="http://www.w3.org/2001/XMLSchema-instance" xsi:noNamespaceSchemaLocation="http://sumo.sf.net/xsd/routes_file.xsd">
    <vehicle id="0" depart="0.00">
        <route edges="11:10 10:0 0:8 8:9"/>
    </vehicle>
    <vehicle id="1" depart="0.10">
        <route edges="17:16 16:3 3:2 2:1 1:0 0:10 10:11"/>
    </vehicle>
    <vehicle id="3" depart="0.30">
        <route edges="13:12 12:1 1:0 0:4 4:6"/>
    </vehicle>
    <vehicle id="4" depart="0.40">
        <route edges="6:4 4:0 0:1 1:2 2:3 3:5 5:7"/>
    </vehicle>
    <vehicle id="5" depart="0.50">
        <route edges="6:4 4:0 0:8 8:9"/>
    </vehicle>
    <vehicle id="10" depart="1.00">
        <route edges="7:5 5:3 3:18"/>
    </vehicle>
    <vehicle id="14" depart="1.40">
        <route edges="2:1 1:0 0:4 4:6"/>
    </vehicle>
    <vehicle id="17" depart="1.70">
        <route edges="9:8 8:0 0:1 1:2 2:14 14:15"/>
    </vehicle>
    <vehicle id="18" depart="1.80">
        <route edges="0:1 1:2 2:14 14:15"/>
    </vehicle>
    <vehicle id="19" depart="1.90">
        <route edges="4:0 0:1 1:12 12:13"/>
    </vehicle>
    <vehicle id="20" depart="2.00">
        <route edges="19:18 18:3 3:2 2:1 1:0 0:4 4:6"/>
    </vehicle>
    <vehicle id="22" depart="2.20">
        <route edges="7:5 5:3 3:2 2:14 14:15"/>
    </vehicle>
    <vehicle id="23" depart="2.30">
        <route edges="7:5 5:3 3:2 2:1 1:0 0:8 8:9"/>
    </vehicle>
    <vehicle id="25" depart="2.50">
        <route edges="17:16 16:3 3:2 2:1 1:0 0:4"/>
    </vehicle>
    <vehicle id="26" depart="2.60">
        <route edges="9:8 8:0 0:4 4:6"/>
    </vehicle>
    <vehicle id="28" depart="2.80">
        <route edges="7:5 5:3 3:2 2:1 1:0 0:8 8:9"/>
    </vehicle>
    <vehicle id="29" depart="2.90">
        <route edges="16:3 3:2 2:1 1:0"/>
    </vehicle>
    <vehicle id="30" depart="3.00">
        <route edges="7:5 5:3"/>
    </vehicle>
    <vehicle id="31" depart="3.10">
        <route edges="6:4 4:0 0:1 1:2 2:14 14:15"/>
    </vehicle>
    <vehicle id="32" depart="3.20">
        <route edges="0:4 4:6"/>
    </vehicle>
    <vehicle id="33" depart="3.30">
        <route edges="13:12 12:1 1:2 2:3 3:5"/>
    </vehicle>
    <vehicle id="34" depart="3.40">
        <route edges="5:3 3:2 2:1 1:0 0:4 4:6"/>
    </vehicle>
    <vehicle id="35" depart="3.50">
        <route edges="6:4 4:0 0:1 1:2 2:3 3:16 16:17"/>
    </vehicle>
    <vehicle id="36" depart="3.60">
        <route edges="7:5 5:3 3:2 2:1 1:12 12:13"/>
    </vehicle>
    <vehicle id="38" depart="3.80">
        <route edges="13:12 12:1 1:2 2:14"/>
    </vehicle>
    <vehicle id="40" depart="4.00">
        <route edges="13:12 12:1 1:0 0:4 4:6"/>
    </vehicle>
    <vehicle id="41" depart="4.10">
        <route edges="6:4 4:0 0:10 10:11"/>
    </vehicle>
    <vehicle id="43" depart="4.30">
        <route edges="5:3 3:2 2:1 1:0 0:4 4:6"/>
    </vehicle>
    <vehicle id="44" depart="4.40">
        <route edges="14:2 2:3 3:5 5:7"/>
    </vehicle>
    <vehicle id="45" depart="4.50">
        <route edges="5:3 3:2 2:1 1:0 0:8 8:9"/>
    </vehicle>
    <vehicle id="46" depart="4.60">
        <route edges="15:14 14:2 2:1 1:0 0:8 8:9"/>
    </vehicle>
    <vehicle id="47" depart="4.70">
        <route edges="6:4 4:0 0:8 8:9"/>
    </vehicle>
    <vehicle id="49" depart="4.90">
        <route edges="14:2 2:1 1:0 0:8 8:9"/>
    </vehicle>
    <vehicle id="50" depart="5.00">
        <route edges="4:0 0:10 10:11"/>
    </vehicle>
    <vehicle id="51" depart="5.10">
        <route edges="4:0 0:8 8:9"/>
    </vehicle>
    <vehicle id="52" depart="5.20">
        <route edges="15:14 14:2 2:1 1:12 12:13"/>
    </vehicle>
    <vehicle id="55" depart="5.50">
        <route edges="1:0 0:4 4:6"/>
    </vehicle>
    <vehicle id="56" depart="5.60">
        <route edges="7:5 5:3 3:2 2:1 1:0 0:10 10:11"/>
    </vehicle>
    <vehicle id="57" depart="5.70">
        <route edges="6:4 4:0 0:1 1:2 2:3 3:18"/>
    </vehicle>
    <vehicle id="58" depart="5.80">
        <route edges="4:0 0:1 1:12 12:13"/>
    </vehicle>
    <vehicle id="59" depart="5.90">
        <route edges="0:1 1:2 2:3 3:16"/>
    </vehicle>
    <vehicle id="62" depart="6.20">
        <route edges="18:3 3:5 5:7"/>
    </vehicle>
    <vehicle id="63" depart="6.30">
        <route edges="12:1 1:0 0:10 10:11"/>
    </vehicle>
    <vehicle id="67" depart="6.70">
        <route edges="17:16 16:3 3:2 2:1 1:12 12:13"/>
    </vehicle>
    <vehicle id="68" depart="6.80">
        <route edges="17:16 16:3 3:2 2:14"/>
    </vehicle>
    <vehicle id="70" depart="7.00">
        <route edges="11:10 10:0 0:8 8:9"/>
    </vehicle>
    <vehicle id="71" depart="7.10">
        <route edges="0:4 4:6"/>
    </vehicle>
    <vehicle id="72" depart="7.20">
        <route edges="11:10 10:0 0:4 4:6"/>
    </vehicle>
    <vehicle id="74" depart="7.40">
        <route edges="15:14 14:2 2:3 3:5 5:7"/>
    </vehicle>
    <vehicle id="76" depart="7.60">
        <route edges="19:18 18:3 3:2 2:1 1:0 0:4 4:6"/>
    </vehicle>
    <vehicle id="77" depart="7.70">
        <route edges="6:4 4:0 0:1 1:2 2:3 3:5 5:7"/>
    </vehicle>
    <vehicle id="78" depart="7.80">
        <route edges="16:3 3:2 2:1 1:12 12:13"/>
    </vehicle>
    <vehicle id="79" depart="7.90">
        <route edges="12:1 1:2 2:3 3:5 5:7"/>
    </vehicle>
    <vehicle id="81" depart="8.10">
        <route edges="13:12 12:1 1:2 2:3 3:5 5:7"/>
    </vehicle>
    <vehicle id="82" depart="8.20">
        <route edges="9:8 8:0 0:1 1:2 2:3 3:16 16:17"/>
    </vehicle>
    <vehicle id="83" depart="8.30">
        <route edges="5:3 3:18 18:19"/>
    </vehicle>
    <vehicle id="86" depart="8.60">
        <route edges="6:4 4:0 0:1 1:2 2:14 14:15"/>
    </vehicle>
    <vehicle id="87" depart="8.70">
        <route edges="13:12 12:1 1:2 2:14 14:15"/>
    </vehicle>
    <vehicle id="88" depart="8.80">
        <route edges="16:3"/>
    </vehicle>
    <vehicle id="89" depart="8.90">
        <route edges="17:16 16:3 3:2"/>
    </vehicle>
    <vehicle id="91" depart="9.10">
        <route edges="0:1 1:2 2:3 3:18 18:19"/>
    </vehicle>
    <vehicle id="93" depart="9.30">
        <route edges="4:0 0:1 1:12 12:13"/>
    </vehicle>
    <vehicle id="94" depart="9.40">
        <route edges="0:4"/>
    </vehicle>
    <vehicle id="98" depart="9.80">
        <route edges="3:5 5:7"/>
    </vehicle>
    <vehicle id="105" depart="10.50">
        <route edges="17:16 16:3 3:18 18:19"/>
    </vehicle>
    <vehicle id="106" depart="10.60">
        <route edges="15:14 14:2 2:1 1:12 12:13"/>
    </vehicle>
    <vehicle id="107" depart="10.70">
        <route edges="10:0 0:1 1:2 2:3 3:5 5:7"/>
    </vehicle>
    <vehicle id="112" depart="11.20">
        <route edges="8:0 0:1 1:2 2:3 3:18 18:19"/>
    </vehicle>
    <vehicle id="114" depart="11.40">
        <route edges="13:12 12:1 1:2 2:3"/>
    </vehicle>
    <vehicle id="117" depart="11.70">
        <route edges="6:4 4:0 0:1 1:2 2:3 3:5"/>
    </vehicle>
    <vehicle id="118" depart="11.80">
        <route edges="17:16 16:3 3:2 2:1 1:0 0:4 4:6"/>
    </vehicle>
    <vehicle id="119" depart="11.90">
        <route edges="13:12 12:1 1:0 0:4 4:6"/>
    </vehicle>
    <vehicle id="120" depart="12.00">
        <route edges="7:5 5:3 3:16 16:17"/>
    </vehicle>
    <vehicle id="123" depart="12.30">
        <route edges="4:0 0:1 1:2 2:3 3:5"/>
    </vehicle>
    <vehicle id="125" depart="12.50">
        <route edges="5:3 3:16 16:17"/>
    </vehicle>
    <vehicle id="126" depart="12.60">
        <route edges="7:5 5:3 3:2 2:14"/>
    </vehicle>
    <vehicle id="128" depart="12.80">
        <route edges="8:0"/>
    </vehicle>
    <vehicle id="131" depart="13.10">
        <route edges="3:2 2:1 1:0 0:4"/>
    </vehicle>
    <vehicle id="135" depart="13.50">
        <route edges="7:5 5:3 3:2 2:1 1:12 12:13"/>
    </vehicle>
    <vehicle id="136" depart="13.60">
        <route edges="5:3 3:18 18:19"/>
    </vehicle>
    <vehicle id="141" depart="14.10">
        <route edges="7:5 5:3 3:2 2:1 1:0 0:4 4:6"/>
    </vehicle>
    <vehicle id="143" depart="14.30">
        <route edges="2:1 1:0 0:4"/>
    </vehicle>
    <vehicle id="147" depart="14.70">
        <route edges="15:14 14:2 2:3 3:18 18:19"/>
    </vehicle>
    <vehicle id="149" depart="14.90">
        <route edges="6:4 4:0 0:10"/>
    </vehicle>
    <vehicle id="150" depart="15.00">
        <route edges="9:8 8:0 0:1 1:2 2:3 3:18"/>
    </vehicle>
    <vehicle id="151" depart="15.10">
        <route edges="19:18 18:3 3:2 2:1 1:0 0:8 8:9"/>
    </vehicle>
    <vehicle id="153" depart="15.30">
        <route edges="11:10 10:0 0:8 8:9"/>
    </vehicle>
    <vehicle id="155" depart="15.50">
        <route edges="14:2 2:1 1:0 0:4 4:6"/>
    </vehicle>
    <vehicle id="156" depart="15.60">
        <route edges="9:8 8:0 0:1 1:2 2:14 14:15"/>
    </vehicle>
    <vehicle id="158" depart="15.80">
        <route edges="6:4 4:0 0:1 1:2 2:3 3:16"/>
    </vehicle>
    <vehicle id="159" depart="15.90">
        <route edges="2:3"/>
    </vehicle>
    <vehicle id="160" depart="16.00">
        <route edges="8:0 0:4 4:6"/>
    </vehicle>
    <vehicle id="161" depart="16.10">
        <route edges="9:8 8:0 0:1 1:2 2:3 3:5 5:7"/>
    </vehicle>
    <vehicle id="162" depart="16.20">
        <route edges="9:8 8:0 0:1 1:2 2:3 3:5 5:7"/>
    </vehicle>
    <vehicle id="163" depart="16.30">
        <route edges="19:18 18:3 3:2 2:1 1:0 0:4 4:6"/>
    </vehicle>
    <vehicle id="165" depart="16.50">
        <route edges="17:16 16:3 3:5 5:7"/>
    </vehicle>
    <vehicle id="166" depart="16.60">
        <route edges="0:4 4:6"/>
    </vehicle>
    <vehicle id="169" depart="16.90">
        <route edges="6:4 4:0 0:8"/>
    </vehicle>
    <vehicle id="170" depart="17.00">
        <route edges="19:18 18:3 3:2 2:1 1:0 0:4"/>
    </vehicle>
    <vehicle id="171" depart="17.10">
        <route edges="6:4 4:0 0:8 8:9"/>
    </vehicle>
    <vehicle id="172" depart="17.20">
        <route edges="19:18 18:3 3:5 5:7"/>
    </vehicle>
    <vehicle id="174" depart="17.40">
        <route edges="13:12 12:1 1:2 2:14 14:15"/>
    </vehicle>
    <vehicle id="175" depart="17.50">
        <route edges="6:4 4:0 0:1 1:12 12:13"/>
    </vehicle>
    <vehicle id="179" depart="17.90">
        <route edges="1:2 2:14 14:15"/>
    </vehicle>
    <vehicle id="180" depart="18.00">
        <route edges="7:5 5:3 3:2 2:1 1:0"/>
    </vehicle>
    <vehicle id="181" depart="18.10">
        <route edges="16:3 3:2 2:1 1:0 0:10"/>
    </vehicle>
    <vehicle id="182" depart="18.20">
        <route edges="6:4 4:0 0:1 1:2 2:3 3:5"/>
    </vehicle>
    <vehicle id="183" depart="18.30">
        <route edges="1:2 2:3 3:18 18:19"/>
    </vehicle>
    <vehicle id="187" depart="18.70">
        <route edges="13:12 12:1 1:2 2:3 3:5 5:7"/>
    </vehicle>
    <vehicle id="191" depart="19.10">
        <route edges="15:14 14:2 2:1 1:12 12:13"/>
    </vehicle>
    <vehicle id="193" depart="19.30">
        <route edges="17:16 16:3 3:2 2:1 1:0 0:8"/>
    </vehicle>
    <vehicle id="196" depart="19.60">
        <route edges="12:1 1:2 2:3 3:5 5:7"/>
    </vehicle>
    <vehicle id="197" depart="19.70">
        <route edges="7:5 5:3 3:16 16:17"/>
    </vehicle>
    <vehicle id="200" depart="20.00">
        <route edges="17:16 16:3 3:5"/>
    </vehicle>
    <vehicle id="202" depart="20.20">
        <route edges="5:3 3:2 2:1 1:0 0:8 8:9"/>
    </vehicle>
    <vehicle id="204" depart="20.40">
        <route edges="13:12 12:1 1:0 0:10 10:11"/>
    </vehicle>
    <vehicle id="205" depart="20.50">
        <route edges="17:16 16:3 3:2 2:1 1:12"/>
    </vehicle>
    <vehicle id="206" depart="20.60">
        <route edges="13:12 12:1 1:0 0:4 4:6"/>
    </vehicle>
    <vehicle id="209" depart="20.90">
        <route edges="6:4 4:0 0:1 1:2 2:3 3:5 5:7"/>
    </vehicle>
    <vehicle id="210" depart="21.00">
        <route edges="13:12 12:1 1:2 2:14"/>
    </vehicle>
    <vehicle id="212" depart="21.20">
        <route edges="13:12 12:1 1:2 2:3 3:5 5:7"/>
    </vehicle>
    <vehicle id="213" depart="21.30">
        <route edges="4:0 0:1 1:12 12:13"/>
    </vehicle>
    <vehicle id="214" depart="21.40">
        <route edges="11:10 10:0 0:4 4:6"/>
    </vehicle>
    <vehicle id="217" depart="21.70">
        <route edges="5:3 3:2 2:1 1:0 0:4 4:6"/>
    </vehicle>
    <vehicle id="218" depart="21.80">
        <route edges="6:4 4:0 0:1 1:2 2:3 3:18 18:19"/>
    </vehicle>
    <vehicle id="219" depart="21.90">
        <route edges="6:4 4:0 0:1 1:2 2:3 3:16 16:17"/>
    </vehicle>
    <vehicle id="220" depart="22.00">
        <route edges="7:5 5:3 3:2 2:1 1:0 0:4 4:6"/>
    </vehicle>
    <vehicle id="222" depart="22.20">
        <route edges="17:16 16:3 3:2 2:1 1:12 12:13"/>
    </vehicle>
    <vehicle id="223" depart="22.30">
        <route edges="6:4 4:0 0:1 1:2 2:14 14:15"/>
    </vehicle>
    <vehicle id="224" depart="22.40">
        <route edges="7:5 5:3 3:2 2:1 1:0 0:8"/>
    </vehicle>
    <vehicle id="225" depart="22.50">
        <route edges="19:18 18:3 3:16"/>
    </vehicle>
    <vehicle id="227" depart="22.70">
        <route edges="15:14 14:2 2:3 3:5 5:7"/>
    </vehicle>
    <vehicle id="229" depart="22.90">
        <route edges="19:18 18:3 3:2 2:1 1:0 0:4 4:6"/>
    </vehicle>
    <vehicle id="231" depart="23.10">
        <route edges="5:3 3:2 2:1 1:0 0:4 4:6"/>
    </vehicle>
    <vehicle id="235" depart="23.50">
        <route edges="7:5 5:3 3:18 18:19"/>
    </vehicle>
    <vehicle id="236" depart="23.60">
        <route edges="5:3 3:2 2:1 1:0 0:4 4:6"/>
    </vehicle>
    <vehicle id="238" depart="23.80">
        <route edges="6:4 4:0 0:1 1:2 2:14 14:15"/>
    </vehicle>
    <vehicle id="241" depart="24.10">
        <route edges="4:0 0:10 10:11"/>
    </vehicle>
    <vehicle id="245" depart="24.50">
        <route edges="6:4 4:0 0:1 1:2 2:3"/>
    </vehicle>
    <vehicle id="251" depart="25.10">
        <route edges="19:18 18:3 3:16"/>
    </vehicle>
    <vehicle id="255" depart="25.50">
        <route edges="6:4 4:0 0:1 1:2 2:3 3:5 5:7"/>
    </vehicle>
    <vehicle id="257" depart="25.70">
        <route edges="7:5 5:3 3:2 2:1 1:0 0:4"/>
    </vehicle>
    <vehicle id="259" depart="25.90">
        <route edges="3:2 2:1 1:0 0:8 8:9"/>
    </vehicle>
    <vehicle id="260" depart="26.00">
        <route edges="9:8 8:0 0:10"/>
    </vehicle>
    <vehicle id="261" depart="26.10">
        <route edges="13:12 12:1 1:0 0:4"/>
    </vehicle>
    <vehicle id="262" depart="26.20">
        <route edges="14:2 2:3 3:5"/>
    </vehicle>
    <vehicle id="264" depart="26.40">
        <route edges="10:0 0:8"/>
    </vehicle>
    <vehicle id="265" depart="26.50">
        <route edges="7:5 5:3 3:2 2:1"/>
    </vehicle>
    <vehicle id="266" depart="26.60">
        <route edges="17:16 16:3 3:18 18:19"/>
    </vehicle>
    <vehicle id="267" depart="26.70">
        <route edges="13:12 12:1 1:0 0:8 8:9"/>
    </vehicle>
    <vehicle id="268" depart="26.80">
        <route edges="17:16 16:3 3:5 5:7"/>
    </vehicle>
    <vehicle id="270" depart="27.00">
        <route edges="13:12 12:1 1:2 2:3 3:5 5:7"/>
    </vehicle>
    <vehicle id="271" depart="27.10">
        <route edges="19:18 18:3 3:2 2:1 1:0 0:4"/>
    </vehicle>
    <vehicle id="272" depart="27.20">
        <route edges="8:0 0:4 4:6"/>
    </vehicle>
    <vehicle id="273" depart="27.30">
        <route edges="1:2 2:3 3:18 18:19"/>
    </vehicle>
    <vehicle id="275" depart="27.50">
        <route edges="15:14 14:2 2:1 1:0 0:8 8:9"/>
    </vehicle>
    <vehicle id="276" depart="27.60">
        <route edges="10:0 0:1 1:2 2:3"/>
    </vehicle>
    <vehicle id="279" depart="27.90">
        <route edges="6:4 4:0 0:1 1:2 2:3 3:5"/>
    </vehicle>
    <vehicle id="282" depart="28.20">
        <route edges="17:16 16:3 3:2 2:1 1:0 0:4"/>
    </vehicle>
    <vehicle id="283" depart="28.30">
        <route edges="7:5 5:3 3:16 16:17"/>
    </vehicle>
    <vehicle id="284" depart="28.40">
        <route edges="5:3 3:2"/>
    </vehicle>
    <vehicle id="287" depart="28.70">
        <route edges="15:14 14:2 2:1 1:0 0:4 4:6"/>
    </vehicle>
    <vehicle id="288" depart="28.80">
        <route edges="8:0 0:1 1:2 2:14"/>
    </vehicle>
    <vehicle id="292" depart="29.20">
        <route edges="7:5 5:3 3:2 2:1 1:0 0:10 10:11"/>
    </vehicle>
    <vehicle id="293" depart="29.30">
        <route edges="11:10 10:0 0:1 1:2 2:3 3:5 5:7"/>
    </vehicle>
    <vehicle id="295" depart="29.50">
        <route edges="7:5 5:3 3:2 2:1 1:0"/>
    </vehicle>
    <vehicle id="297" depart="29.70">
        <route edges="6:4 4:0 0:1 1:2 2:3 3:5"/>
    </vehicle>
    <vehicle id="299" depart="29.90">
        <route edges="15:14 14:2 2:1 1:0 0:4 4:6"/>
    </vehicle>
    <vehicle id="302" depart="30.20">
        <route edges="17:16 16:3 3:2 2:1 1:0"/>
    </vehicle>
    <vehicle id="303" depart="30.30">
        <route edges="7:5 5:3 3:2 2:14 14:15"/>
    </vehicle>
    <vehicle id="305" depart="30.50">
        <route edges="8:0 0:1 1:2 2:3 3:5 5:7"/>
    </vehicle>
    <vehicle id="310" depart="31.00">
        <route edges="11:10 10:0 0:1 1:2 2:14"/>
    </vehicle>
    <vehicle id="313" depart="31.30">
        <route edges="8:0 0:1 1:2 2:3"/>
    </vehicle>
    <vehicle id="318" depart="31.80">
        <route edges="15:14 14:2 2:3 3:5"/>
    </vehicle>
    <vehicle id="319" depart="31.90">
        <route edges="1:2"/>
    </vehicle>
    <vehicle id="320" depart="32.00">
        <route edges="2:1 1:12 12:13"/>
    </vehicle>
    <vehicle id="321" depart="32.10">
        <route edges="5:3 3:2 2:14"/>
    </vehicle>
    <vehicle id="335" depart="33.50">
        <route edges="7:5 5:3 3:2"/>
    </vehicle>
    <vehicle id="336" depart="33.60">
        <route edges="3:18 18:19"/>
    </vehicle>
    <vehicle id="338" depart="33.80">
        <route edges="17:16 16:3 3:18"/>
    </vehicle>
    <vehicle id="340" depart="34.00">
        <route edges="12:1 1:2 2:3 3:5 5:7"/>
    </vehicle>
    <vehicle id="341" depart="34.10">
        <route edges="19:18 18:3 3:2 2:1 1:0 0:10"/>
    </vehicle>
    <vehicle id="346" depart="34.60">
        <route edges="13:12 12:1 1:0 0:4 4:6"/>
    </vehicle>
    <vehicle id="347" depart="34.70">
        <route edges="6:4 4:0 0:1 1:2 2:3 3:16 16:17"/>
    </vehicle>
    <vehicle id="348" depart="34.80">
        <route edges="12:1 1:0 0:4 4:6"/>
    </vehicle>
    <vehicle id="349" depart="34.90">
        <route edges="2:1"/>
    </vehicle>
    <vehicle id="351" depart="35.10">
        <route edges="7:5 5:3 3:2 2:1 1:12 12:13"/>
    </vehicle>
    <vehicle id="352" depart="35.20">
        <route edges="18:3 3:2 2:1 1:0 0:4 4:6"/>
    </vehicle>
    <vehicle id="354" depart="35.40">
        <route edges="0:4 4:6"/>
    </vehicle>
    <vehicle id="356" depart="35.60">
        <route edges="15:14 14:2"/>
    </vehicle>
    <vehicle id="358" depart="35.80">
        <route edges="11:10 10:0 0:1 1:2 2:3 3:16 16:17"/>
    </vehicle>
    <vehicle id="359" depart="35.90">
        <route edges="17:16 16:3 3:5 5:7"/>
    </vehicle>
    <vehicle id="361" depart="36.10">
        <route edges="19:18 18:3 3:2 2:1 1:0 0:10 10:11"/>
    </vehicle>
    <vehicle id="362" depart="36.20">
        <route edges="18:3 3:2 2:14 14:15"/>
    </vehicle>
    <vehicle id="364" depart="36.40">
        <route edges="12:1 1:0 0:4 4:6"/>
    </vehicle>
    <vehicle id="365" depart="36.50">
        <route edges="3:2 2:14 14:15"/>
    </vehicle>
    <vehicle id="367" depart="36.70">
        <route edges="13:12 12:1"/>
    </vehicle>
    <vehicle id="368" depart="36.80">
        <route edges="9:8 8:0"/>
    </vehicle>
    <vehicle id="369" depart="36.90">
        <route edges="7:5 5:3 3:2"/>
    </vehicle>
    <vehicle id="372" depart="37.20">
        <route edges="4:0 0:1 1:2 2:3 3:5 5:7"/>
    </vehicle>
    <vehicle id="374" depart="37.40">
        <route edges="7:5 5:3 3:2 2:1 1:12 12:13"/>
    </vehicle>
    <vehicle id="376" depart="37.60">
        <route edges="5:3 3:2 2:1"/>
    </vehicle>
    <vehicle id="378" depart="37.80">
        <route edges="8:0 0:4 4:6"/>
    </vehicle>
    <vehicle id="380" depart="38.00">
        <route edges="5:3 3:16 16:17"/>
    </vehicle>
    <vehicle id="382" depart="38.20">
        <route edges="12:1 1:0 0:4"/>
    </vehicle>
    <vehicle id="386" depart="38.60">
        <route edges="7:5 5:3 3:2 2:1 1:0"/>
    </vehicle>
    <vehicle id="387" depart="38.70">
        <route edges="2:3 3:18"/>
    </vehicle>
    <vehicle id="388" depart="38.80">
        <route edges="15:14 14:2 2:3 3:5 5:7"/>
    </vehicle>
    <vehicle id="390" depart="39.00">
        <route edges="2:1 1:0 0:8 8:9"/>
    </vehicle>
    <vehicle id="391" depart="39.10">
        <route edges="6:4 4:0 0:1 1:2 2:14"/>
    </vehicle>
    <vehicle id="392" depart="39.20">
        <route edges="15:14 14:2 2:3 3:5 5:7"/>
    </vehicle>
    <vehicle id="395" depart="39.50">
        <route edges="8:0 0:1 1:2 2:3 3:18 18:19"/>
    </vehicle>
    <vehicle id="397" depart="39.70">
        <route edges="19:18 18:3 3:2"/>
    </vehicle>
    <vehicle id="399" depart="39.90">
        <route edges="11:10 10:0 0:4"/>
    </vehicle>
    <vehicle id="401" depart="40.10">
        <route edges="15:14 14:2 2:3"/>
    </vehicle>
    <vehicle id="403" depart="40.30">
        <route edges="9:8 8:0 0:10 10:11"/>
    </vehicle>
    <vehicle id="404" depart="40.40">
        <route edges="9:8 8:0"/>
    </vehicle>
    <vehicle id="407" depart="40.70">
        <route edges="13:12 12:1 1:2 2:3 3:5 5:7"/>
    </vehicle>
    <vehicle id="408" depart="40.80">
        <route edges="17:16 16:3 3:5 5:7"/>
    </vehicle>
    <vehicle id="409" depart="40.90">
        <route edges="6:4 4:0 0:1"/>
    </vehicle>
    <vehicle id="411" depart="41.10">
        <route edges="13:12 12:1 1:2 2:3 3:16 16:17"/>
    </vehicle>
    <vehicle id="412" depart="41.20">
        <route edges="7:5 5:3 3:2 2:1 1:12 12:13"/>
    </vehicle>
    <vehicle id="413" depart="41.30">
        <route edges="15:14 14:2 2:1 1:0 0:4 4:6"/>
    </vehicle>
    <vehicle id="414" depart="41.40">
        <route edges="6:4 4:0 0:8 8:9"/>
    </vehicle>
    <vehicle id="415" depart="41.50">
        <route edges="11:10 10:0 0:8 8:9"/>
    </vehicle>
    <vehicle id="417" depart="41.70">
        <route edges="0:10 10:11"/>
    </vehicle>
    <vehicle id="419" depart="41.90">
        <route edges="2:1 1:12 12:13"/>
    </vehicle>
    <vehicle id="425" depart="42.50">
        <route edges="9:8 8:0 0:1 1:2 2:3 3:5 5:7"/>
    </vehicle>
    <vehicle id="428" depart="42.80">
        <route edges="5:3"/>
    </vehicle>
    <vehicle id="430" depart="43.00">
        <route edges="3:2"/>
    </vehicle>
    <vehicle id="431" depart="43.10">
        <route edges="11:10 10:0 0:1 1:2 2:14 14:15"/>
    </vehicle>
    <vehicle id="435" depart="43.50">
        <route edges="6:4 4:0 0:1 1:12"/>
    </vehicle>
    <vehicle id="436" depart="43.60">
        <route edges="6:4 4:0 0:1 1:2 2:14 14:15"/>
    </vehicle>
    <vehicle id="438" depart="43.80">
        <route edges="9:8 8:0 0:1 1:2 2:3 3:5 5:7"/>
    </vehicle>
    <vehicle id="442" depart="44.20">
        <route edges="6:4 4:0 0:8"/>
    </vehicle>
    <vehicle id="443" depart="44.30">
        <route edges="4:0 0:1 1:2 2:3 3:18 18:19"/>
    </vehicle>
    <vehicle id="444" depart="44.40">
        <route edges="10:0 0:1 1:2 2:3 3:5 5:7"/>
    </vehicle>
    <vehicle id="446" depart="44.60">
        <route edges="13:12 12:1 1:2 2:3 3:5 5:7"/>
    </vehicle>
    <vehicle id="448" depart="44.80">
        <route edges="13:12 12:1 1:2 2:3 3:5"/>
    </vehicle>
    <vehicle id="452" depart="45.20">
        <route edges="6:4 4:0 0:1 1:12 12:13"/>
    </vehicle>
    <vehicle id="453" depart="45.30">
        <route edges="6:4 4:0 0:8 8:9"/>
    </vehicle>
    <vehicle id="454" depart="45.40">
        <route edges="17:16 16:3 3:2 2:1 1:0 0:4 4:6"/>
    </vehicle>
    <vehicle id="455" depart="45.50">
        <route edges="8:0 0:4 4:6"/>
    </vehicle>
    <vehicle id="456" depart="45.60">
        <route edges="15:14 14:2 2:3 3:5"/>
    </vehicle>
    <vehicle id="457" depart="45.70">
        <route edges="13:12 12:1 1:2 2:3 3:18"/>
    </vehicle>
    <vehicle id="461" depart="46.10">
        <route edges="6:4 4:0 0:10 10:11"/>
    </vehicle>
    <vehicle id="462" depart="46.20">
        <route edges="7:5 5:3 3:2 2:1 1:0 0:4"/>
    </vehicle>
    <vehicle id="463" depart="46.30">
        <route edges="19:18 18:3 3:2 2:1 1:12 12:13"/>
    </vehicle>
    <vehicle id="464" depart="46.40">
        <route edges="7:5 5:3 3:18"/>
    </vehicle>
    <vehicle id="465" depart="46.50">
        <route edges="3:2 2:1 1:0 0:4 4:6"/>
    </vehicle>
    <vehicle id="466" depart="46.60">
        <route edges="7:5 5:3 3:18 18:19"/>
    </vehicle>
    <vehicle id="467" depart="46.70">
        <route edges="13:12 12:1"/>
    </vehicle>
    <vehicle id="469" depart="46.90">
        <route edges="7:5 5:3 3:2 2:1 1:0"/>
    </vehicle>
    <vehicle id="470" depart="47.00">
        <route edges="9:8 8:0 0:1 1:2 2:3 3:5 5:7"/>
    </vehicle>
    <vehicle id="472" depart="47.20">
        <route edges="11:10 10:0 0:1 1:12 12:13"/>
    </vehicle>
    <vehicle id="473" depart="47.30">
        <route edges="6:4 4:0 0:1 1:2 2:3 3:16 16:17"/>
    </vehicle>
    <vehicle id="476" depart="47.60">
        <route edges="19:18 18:3 3:16"/>
    </vehicle>
    <vehicle id="478" depart="47.80">
        <route edges="6:4 4:0 0:1 1:2 2:3 3:16 16:17"/>
    </vehicle>
    <vehicle id="479" depart="47.90">
        <route edges="6:4 4:0 0:1 1:2 2:3 3:5 5:7"/>
    </vehicle>
    <vehicle id="480" depart="48.00">
        <route edges="2:3 3:18"/>
    </vehicle>
    <vehicle id="483" depart="48.30">
        <route edges="15:14 14:2 2:3 3:18 18:19"/>
    </vehicle>
    <vehicle id="484" depart="48.40">
        <route edges="1:0 0:10"/>
    </vehicle>
    <vehicle id="488" depart="48.80">
        <route edges="13:12 12:1 1:2 2:3 3:5 5:7"/>
    </vehicle>
    <vehicle id="489" depart="48.90">
        <route edges="11:10 10:0 0:1 1:2 2:3 3:16 16:17"/>
    </vehicle>
    <vehicle id="490" depart="49.00">
        <route edges="9:8 8:0 0:4 4:6"/>
    </vehicle>
    <vehicle id="491" depart="49.10">
        <route edges="17:16 16:3 3:2 2:1 1:0 0:4 4:6"/>
    </vehicle>
    <vehicle id="493" depart="49.30">
        <route edges="5:3 3:2 2:1 1:12 12:13"/>
    </vehicle>
    <vehicle id="495" depart="49.50">
        <route edges="2:1 1:0 0:4"/>
    </vehicle>
    <vehicle id="496" depart="49.60">
        <route edges="6:4 4:0 0:1 1:2 2:3"/>
    </vehicle>
    <vehicle id="499" depart="49.90">
        <route edges="7:5 5:3 3:2 2:1 1:0 0:10"/>
    </vehicle>
    <vehicle id="500" depart="50.00">
        <route edges="3:5"/>
    </vehicle>
    <vehicle id="502" depart="50.20">
        <route edges="2:1 1:0 0:10"/>
    </vehicle>
    <vehicle id="506" depart="50.60">
        <route edges="13:12 12:1 1:2 2:3"/>
    </vehicle>
    <vehicle id="507" depart="50.70">
        <route edges="9:8 8:0 0:4 4:6"/>
    </vehicle>
    <vehicle id="508" depart="50.80">
        <route edges="16:3 3:5 5:7"/>
    </vehicle>
    <vehicle id="511" depart="51.10">
        <route edges="10:0 0:1 1:2 2:3 3:5"/>
    </vehicle>
    <vehicle id="512" depart="51.20">
        <route edges="12:1 1:0 0:10 10:11"/>
    </vehicle>
    <vehicle id="513" depart="51.30">
        <route edges="11:10 10:0 0:4 4:6"/>
    </vehicle>
    <vehicle id="514" depart="51.40">
        <route edges="0:1"/>
    </vehicle>
    <vehicle id="515" depart="51.50">
        <route edges="4:0 0:8 8:9"/>
    </vehicle>
    <vehicle id="516" depart="51.60">
        <route edges="17:16 16:3 3:2 2:14 14:15"/>
    </vehicle>
    <vehicle id="517" depart="51.70">
        <route edges="6:4 4:0 0:10 10:11"/>
    </vehicle>
    <vehicle id="518" depart="51.80">
        <route edges="0:4 4:6"/>
    </vehicle>
    <vehicle id="520" depart="52.00">
        <route edges="6:4 4:0 0:8"/>
    </vehicle>
    <vehicle id="521" depart="52.10">
        <route edges="7:5 5:3 3:2 2:1 1:0 0:4 4:6"/>
    </vehicle>
    <vehicle id="522" depart="52.20">
        <route edges="11:10 10:0"/>
    </vehicle>
    <vehicle id="526" depart="52.60">
        <route edges="9:8 8:0 0:1 1:2 2:3 3:16"/>
    </vehicle>
    <vehicle id="528" depart="52.80">
        <route edges="6:4 4:0 0:1 1:2 2:3"/>
    </vehicle>
    <vehicle id="529" depart="52.90">
        <route edges="7:5 5:3 3:2 2:1 1:0 0:10 10:11"/>
    </vehicle>
    <vehicle id="531" depart="53.10">
        <route edges="19:18 18:3 3:2 2:1 1:0 0:4 4:6"/>
    </vehicle>
    <vehicle id="532" depart="53.20">
        <route edges="9:8 8:0 0:1 1:2 2:3 3:5"/>
    </vehicle>
    <vehicle id="535" depart="53.50">
        <route edges="11:10 10:0 0:4 4:6"/>
    </vehicle>
    <vehicle id="536" depart="53.60">
        <route edges="6:4 4:0 0:10"/>
    </vehicle>
    <vehicle id="537" depart="53.70">
        <route edges="6:4 4:0 0:10 10:11"/>
    </vehicle>
    <vehicle id="538" depart="53.80">
        <route edges="15:14 14:2 2:3 3:5 5:7"/>
    </vehicle>
    <vehicle id="541" depart="54.10">
        <route edges="6:4 4:0 0:1 1:2 2:3 3:5"/>
    </vehicle>
    <vehicle id="542" depart="54.20">
        <route edges="6:4 4:0 0:1 1:2 2:3 3:5 5:7"/>
    </vehicle>