<?xml version="1.0" encoding="UTF-8"?>

<!-- generated on Thu Oct 23 22:34:30 2014 by SUMO duarouter Version 0.18.0
<?xml version="1.0" encoding="UTF-8"?>

<configuration xmlns:xsi="http://www.w3.org/2001/XMLSchema-instance" xsi:noNamespaceSchemaLocation="http://sumo.sf.net/xsd/duarouterConfiguration.xsd">

    <input>
        <net-file value="corridor.net.xml"/>
        <trip-files value="experimentos/corridor.p0.7.2.trips.xml"/>
    </input>

    <output>
        <output-file value="experimentos/corridor.p0.7.2.rou.xml"/>
    </output>

    <processing>
        <ignore-errors value="true"/>
    </processing>

    <random_number>
        <random value="true"/>
    </random_number>

</configuration>
-->

<routes xmlns:xsi="http://www.w3.org/2001/XMLSchema-instance" xsi:noNamespaceSchemaLocation="http://sumo.sf.net/xsd/routes_file.xsd">
    <vehicle id="1" depart="0.70">
        <route edges="3:2 2:1 1:12 12:13"/>
    </vehicle>
    <vehicle id="2" depart="1.40">
        <route edges="19:18 18:3 3:2 2:1 1:0 0:4 4:6"/>
    </vehicle>
    <vehicle id="4" depart="2.80">
        <route edges="2:14"/>
    </vehicle>
    <vehicle id="5" depart="3.50">
        <route edges="9:8 8:0 0:1"/>
    </vehicle>
    <vehicle id="6" depart="4.20">
        <route edges="18:3 3:5 5:7"/>
    </vehicle>
    <vehicle id="7" depart="4.90">
        <route edges="5:3 3:2 2:1 1:0 0:4 4:6"/>
    </vehicle>
    <vehicle id="8" depart="5.60">
        <route edges="16:3 3:18 18:19"/>
    </vehicle>
    <vehicle id="9" depart="6.30">
        <route edges="17:16 16:3 3:2 2:1 1:12 12:13"/>
    </vehicle>
    <vehicle id="10" depart="7.00">
        <route edges="7:5 5:3 3:2 2:1 1:0 0:4 4:6"/>
    </vehicle>
    <vehicle id="11" depart="7.70">
        <route edges="10:0 0:1 1:2 2:14 14:15"/>
    </vehicle>
    <vehicle id="12" depart="8.40">
        <route edges="4:0 0:1 1:2 2:3 3:16 16:17"/>
    </vehicle>
    <vehicle id="16" depart="11.20">
        <route edges="15:14 14:2 2:1 1:0 0:8"/>
    </vehicle>
    <vehicle id="17" depart="11.90">
        <route edges="4:0 0:10 10:11"/>
    </vehicle>
    <vehicle id="19" depart="13.30">
        <route edges="19:18 18:3 3:16 16:17"/>
    </vehicle>
    <vehicle id="22" depart="15.40">
        <route edges="6:4 4:0 0:8 8:9"/>
    </vehicle>
    <vehicle id="23" depart="16.10">
        <route edges="5:3 3:16"/>
    </vehicle>
    <vehicle id="25" depart="17.50">
        <route edges="2:3 3:18 18:19"/>
    </vehicle>
    <vehicle id="26" depart="18.20">
        <route edges="7:5 5:3"/>
    </vehicle>
    <vehicle id="27" depart="18.90">
        <route edges="1:2 2:3 3:16 16:17"/>
    </vehicle>
    <vehicle id="29" depart="20.30">
        <route edges="18:3 3:2 2:1 1:0 0:4 4:6"/>
    </vehicle>
    <vehicle id="32" depart="22.40">
        <route edges="2:3 3:5 5:7"/>
    </vehicle>
    <vehicle id="33" depart="23.10">
        <route edges="9:8 8:0 0:1 1:12"/>
    </vehicle>
    <vehicle id="38" depart="26.60">
        <route edges="9:8 8:0 0:1 1:2 2:3 3:5 5:7"/>
    </vehicle>
    <vehicle id="39" depart="27.30">
        <route edges="15:14 14:2 2:3 3:16"/>
    </vehicle>
    <vehicle id="41" depart="28.70">
        <route edges="6:4 4:0 0:10 10:11"/>
    </vehicle>
    <vehicle id="42" depart="29.40">
        <route edges="6:4 4:0 0:8 8:9"/>
    </vehicle>
    <vehicle id="44" depart="30.80">
        <route edges="17:16 16:3 3:2 2:1 1:0 0:4 4:6"/>
    </vehicle>
    <vehicle id="46" depart="32.20">
        <route edges="16:3 3:2 2:1 1:0 0:4 4:6"/>
    </vehicle>
    <vehicle id="48" depart="33.60">
        <route edges="5:3 3:2 2:14 14:15"/>
    </vehicle>
    <vehicle id="49" depart="34.30">
        <route edges="17:16 16:3 3:2 2:1 1:0 0:10 10:11"/>
    </vehicle>
    <vehicle id="52" depart="36.40">
        <route edges="7:5 5:3 3:2 2:1 1:0 0:4"/>
    </vehicle>
    <vehicle id="53" depart="37.10">
        <route edges="8:0 0:10 10:11"/>
    </vehicle>
    <vehicle id="55" depart="38.50">
        <route edges="19:18 18:3 3:2 2:1 1:0 0:4 4:6"/>
    </vehicle>
    <vehicle id="56" depart="39.20">
        <route edges="6:4 4:0 0:1 1:2 2:3 3:18 18:19"/>
    </vehicle>
    <vehicle id="57" depart="39.90">
        <route edges="17:16 16:3 3:2 2:1 1:0 0:4"/>
    </vehicle>
    <vehicle id="58" depart="40.60">
        <route edges="11:10 10:0 0:8 8:9"/>
    </vehicle>
    <vehicle id="59" depart="41.30">
        <route edges="10:0 0:1 1:2 2:14 14:15"/>
    </vehicle>
    <vehicle id="60" depart="42.00">
        <route edges="0:1 1:2 2:3 3:5 5:7"/>
    </vehicle>
    <vehicle id="62" depart="43.40">
        <route edges="19:18 18:3 3:5 5:7"/>
    </vehicle>
    <vehicle id="63" depart="44.10">
        <route edges="11:10 10:0 0:1 1:2 2:3 3:18"/>
    </vehicle>
    <vehicle id="66" depart="46.20">
        <route edges="17:16 16:3 3:2 2:1 1:0 0:10 10:11"/>
    </vehicle>
    <vehicle id="68" depart="47.60">
        <route edges="6:4 4:0 0:1 1:2 2:3 3:16 16:17"/>
    </vehicle>
    <vehicle id="70" depart="49.00">
        <route edges="11:10 10:0 0:4 4:6"/>
    </vehicle>
    <vehicle id="71" depart="49.70">
        <route edges="8:0 0:1 1:2 2:14 14:15"/>
    </vehicle>
    <vehicle id="72" depart="50.40">
        <route edges="11:10 10:0 0:4 4:6"/>
    </vehicle>
    <vehicle id="74" depart="51.80">
        <route edges="4:0 0:1 1:12 12:13"/>
    </vehicle>
    <vehicle id="76" depart="53.20">
        <route edges="2:1 1:0 0:4 4:6"/>
    </vehicle>
    <vehicle id="77" depart="53.90">
        <route edges="18:3 3:2 2:1 1:12 12:13"/>
    </vehicle>
    <vehicle id="78" depart="54.60">
        <route edges="9:8 8:0 0:1 1:2 2:3 3:16 16:17"/>
    </vehicle>
    <vehicle id="81" depart="56.70">
        <route edges="11:10 10:0 0:1 1:2 2:3 3:18"/>
    </vehicle>
    <vehicle id="82" depart="57.40">
        <route edges="19:18 18:3 3:2 2:1 1:0 0:4"/>
    </vehicle>
    <vehicle id="85" depart="59.50">
        <route edges="6:4 4:0 0:10 10:11"/>
    </vehicle>
    <vehicle id="86" depart="60.20">
        <route edges="11:10 10:0 0:8 8:9"/>
    </vehicle>
    <vehicle id="87" depart="60.90">
        <route edges="12:1 1:2 2:14 14:15"/>
    </vehicle>
    <vehicle id="90" depart="63.00">
        <route edges="4:0 0:1 1:2 2:14 14:15"/>
    </vehicle>
    <vehicle id="92" depart="64.40">
        <route edges="5:3 3:18 18:19"/>
    </vehicle>
    <vehicle id="93" depart="65.10">
        <route edges="3:5 5:7"/>
    </vehicle>
    <vehicle id="95" depart="66.50">
        <route edges="13:12 12:1 1:0 0:8 8:9"/>
    </vehicle>
    <vehicle id="98" depart="68.60">
        <route edges="19:18 18:3 3:2"/>
    </vehicle>
    <vehicle id="99" depart="69.30">
        <route edges="15:14 14:2 2:1 1:12 12:13"/>
    </vehicle>
    <vehicle id="101" depart="70.70">
        <route edges="7:5 5:3 3:2 2:1 1:12"/>
    </vehicle>
    <vehicle id="102" depart="71.40">
        <route edges="15:14 14:2 2:1 1:0 0:4"/>
    </vehicle>
    <vehicle id="105" depart="73.50">
        <route edges="17:16 16:3 3:2"/>
    </vehicle>
    <vehicle id="107" depart="74.90">
        <route edges="9:8 8:0 0:1 1:2 2:3 3:5 5:7"/>
    </vehicle>
    <vehicle id="110" depart="77.00">
        <route edges="12:1 1:0 0:4 4:6"/>
    </vehicle>
    <vehicle id="111" depart="77.70">
        <route edges="17:16 16:3 3:2 2:14 14:15"/>
    </vehicle>
    <vehicle id="121" depart="84.70">
        <route edges="0:1 1:2 2:3 3:5 5:7"/>
    </vehicle>
    <vehicle id="122" depart="85.40">
        <route edges="6:4 4:0 0:1 1:2"/>
    </vehicle>
    <vehicle id="126" depart="88.20">
        <route edges="18:3 3:2 2:1 1:0 0:4 4:6"/>
    </vehicle>
    <vehicle id="127" depart="88.90">
        <route edges="10:0 0:1 1:2 2:3 3:5"/>
    </vehicle>
    <vehicle id="128" depart="89.60">
        <route edges="7:5 5:3 3:2 2:1 1:12 12:13"/>
    </vehicle>
    <vehicle id="129" depart="90.30">
        <route edges="14:2 2:3 3:5 5:7"/>
    </vehicle>
    <vehicle id="130" depart="91.00">
        <route edges="9:8 8:0 0:1 1:2 2:3 3:5"/>
    </vehicle>
    <vehicle id="131" depart="91.70">
        <route edges="7:5 5:3 3:2"/>
    </vehicle>
    <vehicle id="132" depart="92.40">
        <route edges="19:18 18:3 3:2"/>
    </vehicle>
    <vehicle id="133" depart="93.10">
        <route edges="13:12 12:1 1:2 2:3 3:5 5:7"/>
    </vehicle>
    <vehicle id="134" depart="93.80">
        <route edges="7:5 5:3 3:2 2:1 1:0 0:10 10:11"/>
    </vehicle>
    <vehicle id="138" depart="96.60">
        <route edges="15:14 14:2 2:1 1:0 0:4 4:6"/>
    </vehicle>
    <vehicle id="139" depart="97.30">
        <route edges="19:18 18:3 3:2 2:1 1:0 0:10"/>
    </vehicle>
    <vehicle id="140" depart="98.00">
        <route edges="9:8 8:0 0:1 1:2"/>
    </vehicle>
    <vehicle id="141" depart="98.70">
        <route edges="6:4 4:0 0:1 1:12 12:13"/>
    </vehicle>
    <vehicle id="143" depart="100.10">
        <route edges="10:0 0:1 1:2 2:3 3:5"/>
    </vehicle>
    <vehicle id="145" depart="101.50">
        <route edges="9:8 8:0 0:10"/>
    </vehicle>
    <vehicle id="146" depart="102.20">
        <route edges="2:3"/>
    </vehicle>
    <vehicle id="147" depart="102.90">
        <route edges="19:18 18:3 3:2 2:1 1:0 0:4 4:6"/>
    </vehicle>
    <vehicle id="148" depart="103.60">
        <route edges="9:8 8:0 0:1 1:2 2:3 3:18 18:19"/>
    </vehicle>
    <vehicle id="150" depart="105.00">
        <route edges="19:18 18:3 3:5 5:7"/>
    </vehicle>
    <vehicle id="151" depart="105.70">
        <route edges="9:8 8:0 0:1 1:2 2:14 14:15"/>
    </vehicle>
    <vehicle id="153" depart="107.10">
        <route edges="9:8 8:0 0:1 1:2 2:14 14:15"/>
    </vehicle>
    <vehicle id="155" depart="108.50">
        <route edges="16:3 3:2 2:14"/>
    </vehicle>
    <vehicle id="157" depart="109.90">
        <route edges="17:16 16:3 3:2 2:1 1:0 0:10 10:11"/>
    </vehicle>
    <vehicle id="158" depart="110.60">
        <route edges="15:14 14:2 2:1"/>
    </vehicle>
    <vehicle id="161" depart="112.70">
        <route edges="13:12 12:1 1:2 2:3 3:5 5:7"/>
    </vehicle>
    <vehicle id="162" depart="113.40">
        <route edges="17:16 16:3 3:5 5:7"/>
    </vehicle>
    <vehicle id="165" depart="115.50">
        <route edges="5:3 3:2 2:1 1:12 12:13"/>
    </vehicle>
    <vehicle id="167" depart="116.90">
        <route edges="11:10 10:0 0:1 1:2 2:14 14:15"/>
    </vehicle>
    <vehicle id="168" depart="117.60">
        <route edges="8:0 0:4 4:6"/>
    </vehicle>
    <vehicle id="169" depart="118.30">
        <route edges="19:18 18:3 3:2 2:1 1:0 0:8 8:9"/>
    </vehicle>
    <vehicle id="170" depart="119.00">
        <route edges="13:12 12:1 1:2 2:14 14:15"/>
    </vehicle>
    <vehicle id="172" depart="120.40">
        <route edges="0:4"/>
    </vehicle>
    <vehicle id="173" depart="121.10">
        <route edges="6:4 4:0 0:8 8:9"/>
    </vehicle>
    <vehicle id="174" depart="121.80">
        <route edges="10:0 0:1 1:12 12:13"/>
    </vehicle>
    <vehicle id="176" depart="123.20">
        <route edges="1:2 2:3 3:5 5:7"/>
    </vehicle>
    <vehicle id="177" depart="123.90">
        <route edges="0:1 1:2 2:3 3:5 5:7"/>
    </vehicle>
    <vehicle id="178" depart="124.60">
        <route edges="14:2 2:1 1:0 0:8 8:9"/>
    </vehicle>
    <vehicle id="179" depart="125.30">
        <route edges="18:3 3:2 2:1"/>
    </vehicle>
    <vehicle id="180" depart="126.00">
        <route edges="2:3 3:5"/>
    </vehicle>
    <vehicle id="185" depart="129.50">
        <route edges="17:16 16:3 3:2 2:1 1:0 0:4 4:6"/>
    </vehicle>
    <vehicle id="186" depart="130.20">
        <route edges="17:16 16:3 3:2"/>
    </vehicle>
    <vehicle id="187" depart="130.90">
        <route edges="7:5 5:3 3:2 2:14 14:15"/>
    </vehicle>
    <vehicle id="190" depart="133.00">
        <route edges="6:4 4:0 0:1 1:2 2:14 14:15"/>
    </vehicle>
    <vehicle id="191" depart="133.70">
        <route edges="11:10 10:0 0:1 1:2 2:3 3:16 16:17"/>
    </vehicle>
    <vehicle id="193" depart="135.10">
        <route edges="3:2 2:1"/>
    </vehicle>
    <vehicle id="198" depart="138.60">
        <route edges="17:16 16:3 3:2 2:1 1:0 0:10 10:11"/>
    </vehicle>
    <vehicle id="202" depart="141.40">
        <route edges="11:10 10:0 0:1 1:2 2:3 3:5"/>
    </vehicle>
    <vehicle id="208" depart="145.60">
        <route edges="3:2 2:1 1:0"/>
    </vehicle>
    <vehicle id="209" depart="146.30">
        <route edges="7:5 5:3 3:2 2:1 1:0 0:4"/>
    </vehicle>
    <vehicle id="211" depart="147.70">
        <route edges="13:12 12:1 1:0 0:10"/>
    </vehicle>
    <vehicle id="213" depart="149.10">
        <route edges="15:14 14:2 2:1 1:0 0:4"/>
    </vehicle>
    <vehicle id="214" depart="149.80">
        <route edges="13:12 12:1 1:2 2:14 14:15"/>
    </vehicle>
    <vehicle id="215" depart="150.50">
        <route edges="5:3"/>
    </vehicle>
    <vehicle id="216" depart="151.20">
        <route edges="6:4 4:0 0:1 1:2 2:14 14:15"/>
    </vehicle>
    <vehicle id="218" depart="152.60">
        <route edges="3:5 5:7"/>
    </vehicle>
    <vehicle id="219" depart="153.30">
        <route edges="15:14 14:2 2:3 3:16 16:17"/>
    </vehicle>
    <vehicle id="220" depart="154.00">
        <route edges="2:1 1:12 12:13"/>
    </vehicle>
    <vehicle id="221" depart="154.70">
        <route edges="17:16 16:3 3:2 2:1 1:12 12:13"/>
    </vehicle>
    <vehicle id="222" depart="155.40">
        <route edges="19:18 18:3 3:2 2:1 1:0 0:8"/>
    </vehicle>
    <vehicle id="226" depart="158.20">
        <route edges="17:16 16:3 3:2 2:14 14:15"/>
    </vehicle>
    <vehicle id="227" depart="158.90">
        <route edges="4:0 0:1 1:2"/>
    </vehicle>
    <vehicle id="229" depart="160.30">
        <route edges="1:0 0:8 8:9"/>
    </vehicle>
    <vehicle id="232" depart="162.40">
        <route edges="9:8 8:0 0:10 10:11"/>
    </vehicle>
    <vehicle id="233" depart="163.10">
        <route edges="6:4 4:0 0:1 1:2 2:14"/>
    </vehicle>
    <vehicle id="234" depart="163.80">
        <route edges="13:12 12:1 1:2 2:14"/>
    </vehicle>
    <vehicle id="235" depart="164.50">
        <route edges="11:10 10:0 0:1 1:2 2:3 3:16"/>
    </vehicle>
    <vehicle id="236" depart="165.20">
        <route edges="6:4 4:0 0:1"/>
    </vehicle>
    <vehicle id="237" depart="165.90">
        <route edges="15:14 14:2 2:3 3:18 18:19"/>
    </vehicle>
    <vehicle id="238" depart="166.60">
        <route edges="18:3 3:2 2:1 1:0 0:10"/>
    </vehicle>
    <vehicle id="239" depart="167.30">
        <route edges="6:4 4:0 0:1 1:12 12:13"/>
    </vehicle>
    <vehicle id="241" depart="168.70">
        <route edges="6:4 4:0 0:1 1:2 2:3"/>
    </vehicle>
    <vehicle id="242" depart="169.40">
        <route edges="7:5 5:3 3:2 2:1 1:0 0:4 4:6"/>
    </vehicle>
    <vehicle id="243" depart="170.10">
        <route edges="9:8 8:0 0:1 1:2 2:3 3:5"/>
    </vehicle>
    <vehicle id="245" depart="171.50">
        <route edges="9:8 8:0 0:1 1:2 2:14 14:15"/>
    </vehicle>
    <vehicle id="250" depart="175.00">
        <route edges="10:0 0:4 4:6"/>
    </vehicle>
    <vehicle id="255" depart="178.50">
        <route edges="6:4 4:0 0:1 1:2 2:3 3:5 5:7"/>
    </vehicle>
    <vehicle id="258" depart="180.60">
        <route edges="4:0 0:1 1:2 2:3 3:5 5:7"/>
    </vehicle>
    <vehicle id="259" depart="181.30">
        <route edges="9:8 8:0 0:1 1:2 2:3 3:5 5:7"/>
    </vehicle>
    <vehicle id="261" depart="182.70">
        <route edges="7:5 5:3 3:18 18:19"/>
    </vehicle>
    <vehicle id="262" depart="183.40">
        <route edges="17:16 16:3 3:2 2:1 1:0 0:4"/>
    </vehicle>
    <vehicle id="264" depart="184.80">
        <route edges="5:3 3:18 18:19"/>
    </vehicle>
    <vehicle id="265" depart="185.50">
        <route edges="6:4 4:0 0:8 8:9"/>
    </vehicle>
    <vehicle id="268" depart="187.60">
        <route edges="6:4 4:0"/>
    </vehicle>
    <vehicle id="271" depart="189.70">
        <route edges="1:12 12:13"/>
    </vehicle>
    <vehicle id="272" depart="190.40">
        <route edges="14:2"/>
    </vehicle>
    <vehicle id="274" depart="191.80">
        <route edges="3:18"/>
    </vehicle>
    <vehicle id="275" depart="192.50">
        <route edges="3:18 18:19"/>
    </vehicle>
    <vehicle id="276" depart="193.20">
        <route edges="19:18 18:3 3:16"/>
    </vehicle>
    <vehicle id="277" depart="193.90">
        <route edges="7:5 5:3 3:2 2:1 1:0 0:10 10:11"/>
    </vehicle>
    <vehicle id="278" depart="194.60">
        <route edges="13:12 12:1 1:2 2:14 14:15"/>
    </vehicle>
    <vehicle id="279" depart="195.30">
        <route edges="5:3 3:16 16:17"/>
    </vehicle>
    <vehicle id="280" depart="196.00">
        <route edges="8:0 0:1 1:2 2:3 3:16 16:17"/>
    </vehicle>
    <vehicle id="283" depart="198.10">
        <route edges="15:14 14:2 2:1 1:0 0:10 10:11"/>
    </vehicle>
    <vehicle id="284" depart="198.80">
        <route edges="7:5 5:3 3:2 2:1 1:0 0:10 10:11"/>
    </vehicle>
    <vehicle id="285" depart="199.50">
        <route edges="16:3 3:2 2:1 1:0 0:8 8:9"/>
    </vehicle>
    <vehicle id="290" depart="203.00">
        <route edges="10:0 0:1 1:12 12:13"/>
    </vehicle>
    <vehicle id="291" depart="203.70">
        <route edges="15:14 14:2 2:1 1:0 0:10 10:11"/>
    </vehicle>
    <vehicle id="292" depart="204.40">
        <route edges="11:10 10:0 0:1 1:2 2:3 3:5 5:7"/>
    </vehicle>
    <vehicle id="293" depart="205.10">
        <route edges="13:12 12:1 1:2 2:3 3:5 5:7"/>
    </vehicle>
    <vehicle id="294" depart="205.80">
        <route edges="4:0 0:8 8:9"/>
    </vehicle>
    <vehicle id="296" depart="207.20">
        <route edges="7:5 5:3 3:16 16:17"/>
    </vehicle>
    <vehicle id="298" depart="208.60">
        <route edges="1:2 2:3 3:5 5:7"/>
    </vehicle>
    <vehicle id="300" depart="210.00">
        <route edges="7:5 5:3 3:2 2:1 1:0 0:4 4:6"/>
    </vehicle>
    <vehicle id="302" depart="211.40">
        <route edges="6:4 4:0 0:1 1:2 2:3 3:18 18:19"/>
    </vehicle>
    <vehicle id="303" depart="212.10">
        <route edges="7:5 5:3 3:2 2:1"/>
    </vehicle>
    <vehicle id="307" depart="214.90">
        <route edges="4:0"/>
    </vehicle>
    <vehicle id="308" depart="215.60">
        <route edges="7:5 5:3 3:2 2:1 1:12"/>
    </vehicle>
    <vehicle id="309" depart="216.30">
        <route edges="4:0 0:1 1:2 2:3 3:5"/>
    </vehicle>
    <vehicle id="310" depart="217.00">
        <route edges="9:8 8:0 0:10"/>
    </vehicle>
    <vehicle id="312" depart="218.40">
        <route edges="0:1 1:2 2:14 14:15"/>
    </vehicle>
    <vehicle id="314" depart="219.80">
        <route edges="9:8 8:0 0:4 4:6"/>
    </vehicle>
    <vehicle id="316" depart="221.20">
        <route edges="15:14 14:2 2:1 1:0 0:10 10:11"/>
    </vehicle>
    <vehicle id="317" depart="221.90">
        <route edges="3:2 2:14 14:15"/>
    </vehicle>
    <vehicle id="321" depart="224.70">
        <route edges="7:5 5:3 3:2 2:1 1:0 0:4 4:6"/>
    </vehicle>
    <vehicle id="322" depart="225.40">
        <route edges="3:2 2:1"/>
    </vehicle>
    <vehicle id="323" depart="226.10">
        <route edges="13:12 12:1 1:2 2:3 3:16 16:17"/>
    </vehicle>
    <vehicle id="324" depart="226.80">
        <route edges="11:10 10:0 0:4 4:6"/>
    </vehicle>
    <vehicle id="325" depart="227.50">
        <route edges="6:4 4:0 0:1 1:2 2:14 14:15"/>
    </vehicle>
    <vehicle id="326" depart="228.20">
        <route edges="16:3 3:2 2:1 1:0 0:10"/>
    </vehicle>
    <vehicle id="327" depart="228.90">
        <route edges="6:4 4:0 0:1 1:2 2:3 3:18 18:19"/>
    </vehicle>
    <vehicle id="329" depart="230.30">
        <route edges="12:1 1:0 0:8 8:9"/>
    </vehicle>
    <vehicle id="332" depart="232.40">
        <route edges="10:0 0:1 1:2 2:3"/>
    </vehicle>
    <vehicle id="334" depart="233.80">
        <route edges="15:14 14:2 2:3 3:5"/>
    </vehicle>
    <vehicle id="337" depart="235.90">
        <route edges="12:1 1:2 2:3 3:5 5:7"/>
    </vehicle>
    <vehicle id="338" depart="236.60">
        <route edges="6:4 4:0 0:1 1:2 2:14 14:15"/>
    </vehicle>
    <vehicle id="342" depart="239.40">
        <route edges="3:16 16:17"/>
    </vehicle>
    <vehicle id="343" depart="240.10">
        <route edges="6:4 4:0 0:1 1:2 2:14 14:15"/>
    </vehicle>
    <vehicle id="344" depart="240.80">
        <route edges="18:3 3:2 2:1 1:0 0:8 8:9"/>
    </vehicle>
    <vehicle id="346" depart="242.20">
        <route edges="2:3 3:18 18:19"/>
    </vehicle>
    <vehicle id="351" depart="245.70">
        <route edges="2:1 1:0 0:8 8:9"/>
    </vehicle>
    <vehicle id="353" depart="247.10">
        <route edges="19:18 18:3 3:2 2:1 1:0 0:10"/>
    </vehicle>
    <vehicle id="354" depart="247.80">
        <route edges="16:3 3:5"/>
    </vehicle>
    <vehicle id="355" depart="248.50">
        <route edges="12:1"/>
    </vehicle>
    <vehicle id="356" depart="249.20">
        <route edges="3:18"/>
    </vehicle>
    <vehicle id="359" depart="251.30">
        <route edges="11:10 10:0 0:1 1:2 2:3 3:5 5:7"/>
    </vehicle>
    <vehicle id="362" depart="253.40">
        <route edges="19:18 18:3 3:2 2:14 14:15"/>
    </vehicle>
    <vehicle id="364" depart="254.80">
        <route edges="9:8 8:0 0:4 4:6"/>
    </vehicle>
    <vehicle id="365" depart="255.50">
        <route edges="6:4 4:0 0:8 8:9"/>
    </vehicle>
    <vehicle id="366" depart="256.20">
        <route edges="7:5 5:3 3:2 2:1 1:0 0:4"/>
    </vehicle>
    <vehicle id="367" depart="256.90">
        <route edges="7:5 5:3 3:2 2:1 1:0 0:10 10:11"/>
    </vehicle>
    <vehicle id="368" depart="257.60">
        <route edges="6:4 4:0 0:1 1:2 2:3 3:5 5:7"/>
    </vehicle>
    <vehicle id="369" depart="258.30">
        <route edges="13:12 12:1 1:2 2:3 3:16 16:17"/>
    </vehicle>
    <vehicle id="371" depart="259.70">
        <route edges="15:14 14:2"/>
    </vehicle>
    <vehicle id="372" depart="260.40">
        <route edges="11:10 10:0 0:8 8:9"/>
    </vehicle>
    <vehicle id="373" depart="261.10">
        <route edges="9:8 8:0 0:1 1:2 2:3 3:18 18:19"/>
    </vehicle>
    <vehicle id="375" depart="262.50">
        <route edges="12:1 1:0 0:10"/>
    </vehicle>
    <vehicle id="376" depart="263.20">
        <route edges="12:1 1:0 0:10 10:11"/>
    </vehicle>
    <vehicle id="378" depart="264.60">
        <route edges="6:4 4:0 0:1 1:12 12:13"/>
    </vehicle>
    <vehicle id="381" depart="266.70">
        <route edges="13:12 12:1 1:0 0:4 4:6"/>
    </vehicle>
    <vehicle id="382" depart="267.40">
        <route edges="9:8 8:0 0:1 1:2 2:14 14:15"/>
    </vehicle>
    <vehicle id="383" depart="268.10">
        <route edges="0:8 8:9"/>
    </vehicle>
    <vehicle id="385" depart="269.50">
        <route edges="13:12 12:1 1:0 0:4 4:6"/>
    </vehicle>
    <vehicle id="387" depart="270.90">
        <route edges="4:0 0:1 1:2 2:3 3:5 5:7"/>
    </vehicle>
    <vehicle id="390" depart="273.00">
        <route edges="4:0 0:8 8:9"/>
    </vehicle>
    <vehicle id="391" depart="273.70">
        <route edges="11:10 10:0 0:4 4:6"/>
    </vehicle>
    <vehicle id="395" depart="276.50">
        <route edges="4:0 0:1 1:2 2:3 3:5"/>
    </vehicle>
    <vehicle id="399" depart="279.30">
        <route edges="6:4 4:0 0:1 1:2 2:3 3:18"/>
    </vehicle>
    <vehicle id="400" depart="280.00">
        <route edges="6:4 4:0 0:1 1:2 2:3 3:18"/>
    </vehicle>
    <vehicle id="403" depart="282.10">
        <route edges="6:4 4:0 0:1 1:2 2:3 3:16 16:17"/>
    </vehicle>
    <vehicle id="405" depart="283.50">
        <route edges="2:3 3:16"/>
    </vehicle>
    <vehicle id="406" depart="284.20">
        <route edges="17:16 16:3 3:2 2:1 1:0 0:10 10:11"/>
    </vehicle>
    <vehicle id="409" depart="286.30">
        <route edges="13:12 12:1 1:0 0:4 4:6"/>
    </vehicle>
    <vehicle id="411" depart="287.70">
        <route edges="19:18 18:3 3:2 2:14 14:15"/>
    </vehicle>
    <vehicle id="412" depart="288.40">
        <route edges="6:4 4:0 0:1 1:2 2:3 3:18"/>
    </vehicle>
    <vehicle id="413" depart="289.10">
        <route edges="4:0"/>
    </vehicle>
    <vehicle id="417" depart="291.90">
        <route edges="19:18 18:3 3:2 2:14"/>
    </vehicle>
    <vehicle id="420" depart="294.00">
        <route edges="13:12 12:1 1:2 2:3 3:16 16:17"/>
    </vehicle>
    <vehicle id="421" depart="294.70">
        <route edges="5:3 3:2 2:1"/>
    </vehicle>
    <vehicle id="422" depart="295.40">
        <route edges="17:16 16:3 3:2 2:1 1:0 0:8 8:9"/>
    </vehicle>
    <vehicle id="425" depart="297.50">
        <route edges="9:8 8:0 0:1 1:2 2:3 3:5 5:7"/>
    </vehicle>
    <vehicle id="426" depart="298.20">
        <route edges="19:18 18:3 3:2 2:14 14:15"/>
    </vehicle>
    <vehicle id="427" depart="298.90">
        <route edges="7:5 5:3 3:2 2:1 1:0 0:4"/>
    </vehicle>
    <vehicle id="429" depart="300.30">
        <route edges="16:3 3:2"/>
    </vehicle>
    <vehicle id="430" depart="301.00">
        <route edges="9:8 8:0 0:1 1:2 2:14 14:15"/>
    </vehicle>
    <vehicle id="432" depart="302.40">
        <route edges="2:3 3:18"/>
    </vehicle>
    <vehicle id="436" depart="305.20">
        <route edges="13:12 12:1 1:0 0:4 4:6"/>
    </vehicle>
    <vehicle id="437" depart="305.90">
        <route edges="14:2 2:3"/>
    </vehicle>
    <vehicle id="439" depart="307.30">
        <route edges="18:3 3:2 2:1 1:0 0:10"/>
    </vehicle>
    <vehicle id="440" depart="308.00">
        <route edges="17:16 16:3 3:5 5:7"/>
    </vehicle>
    <vehicle id="443" depart="310.10">
        <route edges="7:5 5:3 3:2 2:1 1:0 0:4 4:6"/>
    </vehicle>
    <vehicle id="446" depart="312.20">
        <route edges="9:8 8:0 0:1 1:2 2:3"/>
    </vehicle>
    <vehicle id="447" depart="312.90">
        <route edges="17:16 16:3 3:2 2:1 1:0 0:8 8:9"/>
    </vehicle>
    <vehicle id="448" depart="313.60">
        <route edges="4:0 0:10 10:11"/>
    </vehicle>
    <vehicle id="450" depart="315.00">
        <route edges="7:5 5:3 3:2 2:14 14:15"/>
    </vehicle>
    <vehicle id="451" depart="315.70">
        <route edges="7:5 5:3"/>
    </vehicle>
    <vehicle id="452" depart="316.40">
        <route edges="13:12 12:1 1:2 2:3 3:18"/>
    </vehicle>
    <vehicle id="455" depart="318.50">
        <route edges="19:18 18:3 3:2 2:1 1:12 12:13"/>
    </vehicle>
    <vehicle id="456" depart="319.20">
        <route edges="6:4 4:0 0:1 1:2 2:3 3:16 16:17"/>
    </vehicle>
    <vehicle id="457" depart="319.90">
        <route edges="8:0 0:4 4:6"/>
    </vehicle>
    <vehicle id="458" depart="320.60">
        <route edges="15:14 14:2 2:1 1:0 0:4 4:6"/>
    </vehicle>
    <vehicle id="461" depart="322.70">
        <route edges="11:10 10:0 0:1"/>
    </vehicle>
    <vehicle id="462" depart="323.40">
        <route edges="1:2 2:3 3:5 5:7"/>
    </vehicle>
    <vehicle id="464" depart="324.80">
        <route edges="17:16 16:3 3:2 2:1 1:12 12:13"/>
    </vehicle>
    <vehicle id="465" depart="325.50">
        <route edges="14:2 2:3 3:5"/>
    </vehicle>
    <vehicle id="467" depart="326.90">
        <route edges="7:5 5:3 3:2 2:14 14:15"/>
    </vehicle>
    <vehicle id="468" depart="327.60">
        <route edges="12:1 1:0 0:4 4:6"/>
    </vehicle>
    <vehicle id="469" depart="328.30">
        <route edges="1:0 0:8 8:9"/>
    </vehicle>
    <vehicle id="470" depart="329.00">
        <route edges="7:5 5:3 3:2 2:1 1:0 0:4 4:6"/>
    </vehicle>
    <vehicle id="475" depart="332.50">
        <route edges="7:5 5:3 3:2 2:1 1:0 0:4 4:6"/>
    </vehicle>
    <vehicle id="476" depart="333.20">
        <route edges="1:2 2:3 3:5"/>
    </vehicle>
    <vehicle id="480" depart="336.00">
        <route edges="4:0 0:1 1:2 2:3 3:16 16:17"/>
    </vehicle>
    <vehicle id="481" depart="336.70">
        <route edges="16:3 3:2"/>
    </vehicle>
    <vehicle id="483" depart="338.10">
        <route edges="2:1 1:0 0:10 10:11"/>
    </vehicle>
    <vehicle id="484" depart="338.80">
        <route edges="6:4 4:0 0:1"/>
    </vehicle>
    <vehicle id="485" depart="339.50">
        <route edges="11:10 10:0 0:1 1:2 2:3 3:16 16:17"/>
    </vehicle>
    <vehicle id="487" depart="340.90">
        <route edges="6:4 4:0 0:1 1:2 2:3 3:18 18:19"/>
    </vehicle>
    <vehicle id="488" depart="341.60">
        <route edges="0:1 1:2 2:3 3:5 5:7"/>
    </vehicle>
    <vehicle id="489" depart="342.30">
        <route edges="10:0 0:1 1:2 2:3 3:16 16:17"/>
    </vehicle>
    <vehicle id="490" depart="343.00">
        <route edges="0:1 1:12 12:13"/>
    </vehicle>
    <vehicle id="492" depart="344.40">
        <route edges="4:0 0:1 1:2 2:3 3:18 18:19"/>
    </vehicle>
    <vehicle id="493" depart="345.10">
        <route edges="19:18 18:3 3:2 2:14 14:15"/>
    </vehicle>
    <vehicle id="499" depart="349.30">
        <route edges="15:14 14:2 2:1 1:12 12:13"/>
    </vehicle>
    <vehicle id="502" depart="351.40">
        <route edges="9:8 8:0 0:1 1:2 2:3 3:5 5:7"/>
    </vehicle>
    <vehicle id="504" depart="352.80">
        <route edges="7:5 5:3 3:2"/>
    </vehicle>
    <vehicle id="507" depart="354.90">
        <route edges="13:12 12:1 1:2 2:3 3:16 16:17"/>
    </vehicle>
    <vehicle id="508" depart="355.60">
        <route edges="13:12 12:1 1:0 0:4 4:6"/>
    </vehicle>
    <vehicle id="510" depart="357.00">
        <route edges="2:3 3:18 18:19"/>
    </vehicle>
    <vehicle id="511" depart="357.70">
        <route edges="19:18 18:3 3:2 2:14 14:15"/>
    </vehicle>
    <vehicle id="513" depart="359.10">
        <route edges="7:5 5:3 3:16"/>
    </vehicle>
    <vehicle id="514" depart="359.80">
        <route edges="11:10 10:0 0:1"/>
    </vehicle>
    <vehicle id="516" depart="361.20">
        <route edges="7:5 5:3 3:2 2:14 14:15"/>
    </vehicle>
    <vehicle id="518" depart="362.60">
        <route edges="3:2"/>
    </vehicle>
    <vehicle id="521" depart="364.70">
        <route edges="15:14 14:2 2:1 1:0 0:8"/>
    </vehicle>
    <vehicle id="524" depart="366.80">
        <route edges="19:18 18:3 3:2"/>
    </vehicle>
    <vehicle id="528" depart="369.60">
        <route edges="13:12 12:1 1:2 2:3 3:5 5:7"/>
    </vehicle>