<?xml version="1.0" encoding="UTF-8"?>

<!-- generated on Thu Oct 23 22:34:18 2014 by SUMO duarouter Version 0.18.0
<?xml version="1.0" encoding="UTF-8"?>

<configuration xmlns:xsi="http://www.w3.org/2001/XMLSchema-instance" xsi:noNamespaceSchemaLocation="http://sumo.sf.net/xsd/duarouterConfiguration.xsd">

    <input>
        <net-file value="corridor.net.xml"/>
        <trip-files value="experimentos/corridor.p0.4.8.trips.xml"/>
    </input>

    <output>
        <output-file value="experimentos/corridor.p0.4.8.rou.xml"/>
    </output>

    <processing>
        <ignore-errors value="true"/>
    </processing>

    <random_number>
        <random value="true"/>
    </random_number>

</configuration>
-->

<routes xmlns:xsi="http://www.w3.org/2001/XMLSchema-instance" xsi:noNamespaceSchemaLocation="http://sumo.sf.net/xsd/routes_file.xsd">
    <vehicle id="1" depart="0.40">
        <route edges="9:8 8:0 0:1 1:2 2:3 3:5 5:7"/>
    </vehicle>
    <vehicle id="4" depart="1.60">
        <route edges="4:0 0:1 1:2 2:14 14:15"/>
    </vehicle>
    <vehicle id="9" depart="3.60">
        <route edges="19:18 18:3 3:2 2:1 1:0 0:10 10:11"/>
    </vehicle>
    <vehicle id="10" depart="4.00">
        <route edges="7:5 5:3 3:2 2:1 1:0 0:4 4:6"/>
    </vehicle>
    <vehicle id="11" depart="4.40">
        <route edges="13:12 12:1 1:2 2:14 14:15"/>
    </vehicle>
    <vehicle id="13" depart="5.20">
        <route edges="2:3 3:16 16:17"/>
    </vehicle>
    <vehicle id="14" depart="5.60">
        <route edges="9:8 8:0 0:1 1:2 2:3 3:5"/>
    </vehicle>
    <vehicle id="17" depart="6.80">
        <route edges="17:16 16:3 3:2 2:1 1:0 0:8 8:9"/>
    </vehicle>
    <vehicle id="19" depart="7.60">
        <route edges="7:5 5:3 3:2 2:1 1:0 0:4 4:6"/>
    </vehicle>
    <vehicle id="20" depart="8.00">
        <route edges="5:3 3:2 2:14 14:15"/>
    </vehicle>
    <vehicle id="21" depart="8.40">
        <route edges="9:8 8:0 0:1 1:2 2:3 3:16 16:17"/>
    </vehicle>
    <vehicle id="22" depart="8.80">
        <route edges="11:10 10:0 0:1 1:2 2:3 3:16 16:17"/>
    </vehicle>
    <vehicle id="23" depart="9.20">
        <route edges="2:3 3:18 18:19"/>
    </vehicle>
    <vehicle id="25" depart="10.00">
        <route edges="14:2 2:1 1:0 0:8"/>
    </vehicle>
    <vehicle id="28" depart="11.20">
        <route edges="7:5 5:3 3:2 2:1 1:0 0:4 4:6"/>
    </vehicle>
    <vehicle id="29" depart="11.60">
        <route edges="19:18 18:3 3:2 2:1 1:0 0:10 10:11"/>
    </vehicle>
    <vehicle id="30" depart="12.00">
        <route edges="5:3 3:2 2:1 1:12 12:13"/>
    </vehicle>
    <vehicle id="34" depart="13.60">
        <route edges="7:5 5:3 3:18 18:19"/>
    </vehicle>
    <vehicle id="35" depart="14.00">
        <route edges="14:2 2:1 1:0 0:4 4:6"/>
    </vehicle>
    <vehicle id="38" depart="15.20">
        <route edges="9:8 8:0 0:1 1:2 2:14"/>
    </vehicle>
    <vehicle id="40" depart="16.00">
        <route edges="4:0 0:1 1:2 2:3"/>
    </vehicle>
    <vehicle id="43" depart="17.20">
        <route edges="9:8 8:0 0:1 1:2 2:3 3:5 5:7"/>
    </vehicle>
    <vehicle id="45" depart="18.00">
        <route edges="0:4 4:6"/>
    </vehicle>
    <vehicle id="47" depart="18.80">
        <route edges="15:14 14:2 2:1 1:0 0:4 4:6"/>
    </vehicle>
    <vehicle id="49" depart="19.60">
        <route edges="13:12 12:1 1:0 0:10 10:11"/>
    </vehicle>
    <vehicle id="50" depart="20.00">
        <route edges="3:16"/>
    </vehicle>
    <vehicle id="51" depart="20.40">
        <route edges="7:5 5:3 3:2 2:1 1:0"/>
    </vehicle>
    <vehicle id="54" depart="21.60">
        <route edges="7:5 5:3 3:2 2:1 1:12 12:13"/>
    </vehicle>
    <vehicle id="57" depart="22.80">
        <route edges="16:3 3:2 2:14 14:15"/>
    </vehicle>
    <vehicle id="61" depart="24.40">
        <route edges="13:12 12:1 1:2 2:3 3:5 5:7"/>
    </vehicle>
    <vehicle id="62" depart="24.80">
        <route edges="11:10 10:0 0:1 1:2 2:3 3:18 18:19"/>
    </vehicle>
    <vehicle id="63" depart="25.20">
        <route edges="10:0 0:4"/>
    </vehicle>
    <vehicle id="65" depart="26.00">
        <route edges="6:4 4:0 0:10"/>
    </vehicle>
    <vehicle id="66" depart="26.40">
        <route edges="5:3 3:2 2:1 1:12 12:13"/>
    </vehicle>
    <vehicle id="67" depart="26.80">
        <route edges="3:5"/>
    </vehicle>
    <vehicle id="68" depart="27.20">
        <route edges="15:14 14:2 2:1 1:0"/>
    </vehicle>
    <vehicle id="69" depart="27.60">
        <route edges="0:1 1:2 2:3 3:5"/>
    </vehicle>
    <vehicle id="70" depart="28.00">
        <route edges="15:14 14:2 2:1 1:12"/>
    </vehicle>
    <vehicle id="72" depart="28.80">
        <route edges="19:18 18:3 3:2"/>
    </vehicle>
    <vehicle id="79" depart="31.60">
        <route edges="8:0 0:4 4:6"/>
    </vehicle>
    <vehicle id="80" depart="32.00">
        <route edges="13:12 12:1 1:0 0:4 4:6"/>
    </vehicle>
    <vehicle id="83" depart="33.20">
        <route edges="6:4 4:0 0:1 1:2 2:3 3:18 18:19"/>
    </vehicle>
    <vehicle id="84" depart="33.60">
        <route edges="3:2 2:1 1:0 0:4"/>
    </vehicle>
    <vehicle id="86" depart="34.40">
        <route edges="13:12 12:1 1:2 2:3 3:18 18:19"/>
    </vehicle>
    <vehicle id="88" depart="35.20">
        <route edges="7:5 5:3 3:2 2:1 1:0 0:4 4:6"/>
    </vehicle>
    <vehicle id="89" depart="35.60">
        <route edges="15:14 14:2 2:1 1:12 12:13"/>
    </vehicle>
    <vehicle id="93" depart="37.20">
        <route edges="5:3 3:2 2:1 1:12 12:13"/>
    </vehicle>
    <vehicle id="96" depart="38.40">
        <route edges="6:4 4:0 0:10 10:11"/>
    </vehicle>
    <vehicle id="97" depart="38.80">
        <route edges="18:3 3:2 2:14 14:15"/>
    </vehicle>
    <vehicle id="98" depart="39.20">
        <route edges="1:2 2:3 3:16"/>
    </vehicle>
    <vehicle id="103" depart="41.20">
        <route edges="7:5 5:3 3:2 2:1 1:12 12:13"/>
    </vehicle>
    <vehicle id="105" depart="42.00">
        <route edges="2:3 3:5"/>
    </vehicle>
    <vehicle id="106" depart="42.40">
        <route edges="6:4 4:0 0:8 8:9"/>
    </vehicle>
    <vehicle id="107" depart="42.80">
        <route edges="9:8 8:0 0:1 1:2 2:3"/>
    </vehicle>
    <vehicle id="108" depart="43.20">
        <route edges="1:0 0:4 4:6"/>
    </vehicle>
    <vehicle id="109" depart="43.60">
        <route edges="12:1 1:0 0:4 4:6"/>
    </vehicle>
    <vehicle id="111" depart="44.40">
        <route edges="4:0 0:10 10:11"/>
    </vehicle>
    <vehicle id="112" depart="44.80">
        <route edges="13:12 12:1 1:0 0:4"/>
    </vehicle>
    <vehicle id="116" depart="46.40">
        <route edges="11:10 10:0 0:1 1:2 2:3 3:18"/>
    </vehicle>
    <vehicle id="117" depart="46.80">
        <route edges="14:2 2:3 3:16 16:17"/>
    </vehicle>
    <vehicle id="118" depart="47.20">
        <route edges="11:10 10:0 0:1 1:2 2:3 3:18 18:19"/>
    </vehicle>
    <vehicle id="120" depart="48.00">
        <route edges="8:0 0:1 1:2"/>
    </vehicle>
    <vehicle id="122" depart="48.80">
        <route edges="10:0 0:1 1:2 2:3 3:5 5:7"/>
    </vehicle>
    <vehicle id="125" depart="50.00">
        <route edges="13:12 12:1 1:0 0:4 4:6"/>
    </vehicle>
    <vehicle id="130" depart="52.00">
        <route edges="14:2 2:3 3:18 18:19"/>
    </vehicle>
    <vehicle id="132" depart="52.80">
        <route edges="0:1"/>
    </vehicle>
    <vehicle id="134" depart="53.60">
        <route edges="4:0 0:1 1:2 2:14 14:15"/>
    </vehicle>
    <vehicle id="135" depart="54.00">
        <route edges="15:14 14:2 2:1 1:12 12:13"/>
    </vehicle>
    <vehicle id="136" depart="54.40">
        <route edges="13:12 12:1 1:0 0:4 4:6"/>
    </vehicle>
    <vehicle id="137" depart="54.80">
        <route edges="6:4 4:0 0:1 1:2 2:3"/>
    </vehicle>
    <vehicle id="138" depart="55.20">
        <route edges="10:0 0:1 1:2 2:3 3:5 5:7"/>
    </vehicle>
    <vehicle id="141" depart="56.40">
        <route edges="6:4 4:0 0:1 1:12 12:13"/>
    </vehicle>
    <vehicle id="142" depart="56.80">
        <route edges="7:5 5:3 3:2 2:1 1:0 0:4"/>
    </vehicle>
    <vehicle id="143" depart="57.20">
        <route edges="15:14 14:2 2:3 3:5 5:7"/>
    </vehicle>
    <vehicle id="144" depart="57.60">
        <route edges="0:8 8:9"/>
    </vehicle>
    <vehicle id="145" depart="58.00">
        <route edges="6:4 4:0 0:1 1:2 2:3 3:5 5:7"/>
    </vehicle>
    <vehicle id="148" depart="59.20">
        <route edges="9:8 8:0 0:1 1:2 2:3 3:5 5:7"/>
    </vehicle>
    <vehicle id="150" depart="60.00">
        <route edges="4:0 0:1 1:2 2:3"/>
    </vehicle>
    <vehicle id="151" depart="60.40">
        <route edges="13:12 12:1 1:0"/>
    </vehicle>
    <vehicle id="152" depart="60.80">
        <route edges="19:18 18:3 3:2"/>
    </vehicle>
    <vehicle id="153" depart="61.20">
        <route edges="8:0 0:1 1:12 12:13"/>
    </vehicle>
    <vehicle id="154" depart="61.60">
        <route edges="9:8 8:0 0:1 1:2 2:3 3:16"/>
    </vehicle>
    <vehicle id="155" depart="62.00">
        <route edges="6:4 4:0 0:1 1:2 2:14"/>
    </vehicle>
    <vehicle id="156" depart="62.40">
        <route edges="15:14 14:2 2:1 1:0"/>
    </vehicle>
    <vehicle id="159" depart="63.60">
        <route edges="0:1 1:2"/>
    </vehicle>
    <vehicle id="164" depart="65.60">
        <route edges="16:3 3:5"/>
    </vehicle>
    <vehicle id="165" depart="66.00">
        <route edges="19:18 18:3 3:2 2:1 1:12 12:13"/>
    </vehicle>
    <vehicle id="166" depart="66.40">
        <route edges="7:5 5:3 3:18 18:19"/>
    </vehicle>
    <vehicle id="169" depart="67.60">
        <route edges="1:2 2:3 3:5 5:7"/>
    </vehicle>
    <vehicle id="170" depart="68.00">
        <route edges="6:4 4:0 0:1 1:2 2:3 3:5 5:7"/>
    </vehicle>
    <vehicle id="171" depart="68.40">
        <route edges="18:3 3:2 2:1 1:0 0:8 8:9"/>
    </vehicle>
    <vehicle id="172" depart="68.80">
        <route edges="4:0 0:1 1:2 2:3 3:5"/>
    </vehicle>
    <vehicle id="173" depart="69.20">
        <route edges="7:5 5:3 3:18 18:19"/>
    </vehicle>
    <vehicle id="175" depart="70.00">
        <route edges="5:3 3:18 18:19"/>
    </vehicle>
    <vehicle id="177" depart="70.80">
        <route edges="7:5 5:3 3:2 2:14"/>
    </vehicle>
    <vehicle id="179" depart="71.60">
        <route edges="3:2 2:1 1:0 0:8 8:9"/>
    </vehicle>
    <vehicle id="180" depart="72.00">
        <route edges="7:5 5:3 3:16 16:17"/>
    </vehicle>
    <vehicle id="182" depart="72.80">
        <route edges="15:14 14:2 2:3 3:16 16:17"/>
    </vehicle>
    <vehicle id="184" depart="73.60">
        <route edges="13:12 12:1 1:0 0:4 4:6"/>
    </vehicle>
    <vehicle id="185" depart="74.00">
        <route edges="3:2 2:1 1:0 0:4 4:6"/>
    </vehicle>
    <vehicle id="186" depart="74.40">
        <route edges="7:5 5:3 3:2 2:1 1:0 0:10 10:11"/>
    </vehicle>
    <vehicle id="187" depart="74.80">
        <route edges="2:1 1:0 0:4 4:6"/>
    </vehicle>
    <vehicle id="189" depart="75.60">
        <route edges="3:5 5:7"/>
    </vehicle>
    <vehicle id="190" depart="76.00">
        <route edges="9:8 8:0 0:1 1:12 12:13"/>
    </vehicle>
    <vehicle id="192" depart="76.80">
        <route edges="2:3 3:5"/>
    </vehicle>
    <vehicle id="193" depart="77.20">
        <route edges="3:5"/>
    </vehicle>
    <vehicle id="195" depart="78.00">
        <route edges="15:14 14:2 2:3"/>
    </vehicle>
    <vehicle id="196" depart="78.40">
        <route edges="16:3 3:5 5:7"/>
    </vehicle>
    <vehicle id="198" depart="79.20">
        <route edges="16:3 3:2 2:1 1:0 0:4"/>
    </vehicle>
    <vehicle id="201" depart="80.40">
        <route edges="6:4 4:0 0:1 1:2 2:3 3:5 5:7"/>
    </vehicle>
    <vehicle id="202" depart="80.80">
        <route edges="1:0 0:4 4:6"/>
    </vehicle>
    <vehicle id="203" depart="81.20">
        <route edges="6:4 4:0 0:1 1:2 2:3 3:18"/>
    </vehicle>
    <vehicle id="204" depart="81.60">
        <route edges="15:14 14:2 2:3 3:5 5:7"/>
    </vehicle>
    <vehicle id="206" depart="82.40">
        <route edges="18:3 3:2 2:1 1:0 0:10 10:11"/>
    </vehicle>
    <vehicle id="208" depart="83.20">
        <route edges="13:12 12:1 1:0 0:10 10:11"/>
    </vehicle>
    <vehicle id="210" depart="84.00">
        <route edges="5:3 3:2 2:1 1:0 0:4 4:6"/>
    </vehicle>
    <vehicle id="211" depart="84.40">
        <route edges="17:16 16:3 3:2 2:14 14:15"/>
    </vehicle>
    <vehicle id="212" depart="84.80">
        <route edges="7:5 5:3 3:2 2:1 1:12 12:13"/>
    </vehicle>
    <vehicle id="213" depart="85.20">
        <route edges="15:14 14:2 2:3 3:5 5:7"/>
    </vehicle>
    <vehicle id="215" depart="86.00">
        <route edges="3:2 2:1 1:0 0:4 4:6"/>
    </vehicle>
    <vehicle id="219" depart="87.60">
        <route edges="10:0 0:4 4:6"/>
    </vehicle>
    <vehicle id="220" depart="88.00">
        <route edges="16:3 3:2 2:1 1:0 0:4 4:6"/>
    </vehicle>
    <vehicle id="223" depart="89.20">
        <route edges="17:16 16:3 3:2 2:1 1:0 0:4"/>
    </vehicle>
    <vehicle id="224" depart="89.60">
        <route edges="6:4 4:0 0:1 1:2 2:3 3:16"/>
    </vehicle>
    <vehicle id="226" depart="90.40">
        <route edges="5:3 3:2 2:1 1:0 0:8 8:9"/>
    </vehicle>
    <vehicle id="227" depart="90.80">
        <route edges="6:4 4:0 0:1 1:2 2:14 14:15"/>
    </vehicle>
    <vehicle id="228" depart="91.20">
        <route edges="6:4 4:0 0:1 1:2 2:14"/>
    </vehicle>
    <vehicle id="232" depart="92.80">
        <route edges="13:12 12:1 1:2 2:3"/>
    </vehicle>
    <vehicle id="233" depart="93.20">
        <route edges="19:18 18:3 3:5 5:7"/>
    </vehicle>
    <vehicle id="234" depart="93.60">
        <route edges="17:16 16:3 3:2 2:1 1:0 0:8 8:9"/>
    </vehicle>
    <vehicle id="235" depart="94.00">
        <route edges="3:2 2:1 1:0 0:4 4:6"/>
    </vehicle>
    <vehicle id="236" depart="94.40">
        <route edges="6:4 4:0 0:1 1:2 2:3 3:5 5:7"/>
    </vehicle>
    <vehicle id="239" depart="95.60">
        <route edges="17:16 16:3 3:2 2:14"/>
    </vehicle>
    <vehicle id="241" depart="96.40">
        <route edges="1:0 0:4 4:6"/>
    </vehicle>
    <vehicle id="242" depart="96.80">
        <route edges="7:5 5:3 3:18 18:19"/>
    </vehicle>
    <vehicle id="244" depart="97.60">
        <route edges="0:1 1:2 2:3 3:5 5:7"/>
    </vehicle>
    <vehicle id="245" depart="98.00">
        <route edges="9:8 8:0 0:4"/>
    </vehicle>
    <vehicle id="247" depart="98.80">
        <route edges="11:10 10:0 0:1 1:2"/>
    </vehicle>
    <vehicle id="248" depart="99.20">
        <route edges="7:5 5:3 3:2 2:1 1:12"/>
    </vehicle>
    <vehicle id="249" depart="99.60">
        <route edges="7:5 5:3 3:2 2:1 1:12 12:13"/>
    </vehicle>
    <vehicle id="250" depart="100.00">
        <route edges="15:14 14:2 2:3 3:5"/>
    </vehicle>
    <vehicle id="251" depart="100.40">
        <route edges="7:5 5:3 3:2 2:1 1:0 0:8 8:9"/>
    </vehicle>
    <vehicle id="256" depart="102.40">
        <route edges="14:2 2:1 1:12 12:13"/>
    </vehicle>
    <vehicle id="257" depart="102.80">
        <route edges="0:1 1:12 12:13"/>
    </vehicle>
    <vehicle id="258" depart="103.20">
        <route edges="18:3 3:2"/>
    </vehicle>
    <vehicle id="260" depart="104.00">
        <route edges="5:3 3:2 2:14 14:15"/>
    </vehicle>
    <vehicle id="262" depart="104.80">
        <route edges="13:12 12:1 1:2 2:3 3:5"/>
    </vehicle>
    <vehicle id="263" depart="105.20">
        <route edges="3:2 2:1 1:0 0:10 10:11"/>
    </vehicle>
    <vehicle id="265" depart="106.00">
        <route edges="15:14 14:2 2:3 3:5 5:7"/>
    </vehicle>
    <vehicle id="269" depart="107.60">
        <route edges="11:10 10:0 0:8 8:9"/>
    </vehicle>
    <vehicle id="270" depart="108.00">
        <route edges="13:12 12:1 1:2 2:3 3:16"/>
    </vehicle>
    <vehicle id="271" depart="108.40">
        <route edges="7:5 5:3 3:18 18:19"/>
    </vehicle>
    <vehicle id="273" depart="109.20">
        <route edges="3:2 2:1 1:12 12:13"/>
    </vehicle>
    <vehicle id="275" depart="110.00">
        <route edges="6:4 4:0 0:1"/>
    </vehicle>
    <vehicle id="280" depart="112.00">
        <route edges="11:10 10:0 0:1 1:12 12:13"/>
    </vehicle>
    <vehicle id="281" depart="112.40">
        <route edges="0:4 4:6"/>
    </vehicle>
    <vehicle id="282" depart="112.80">
        <route edges="11:10 10:0 0:1 1:2 2:14"/>
    </vehicle>
    <vehicle id="284" depart="113.60">
        <route edges="6:4 4:0 0:1 1:2 2:3 3:18 18:19"/>
    </vehicle>
    <vehicle id="285" depart="114.00">
        <route edges="16:3 3:2 2:1 1:0"/>
    </vehicle>
    <vehicle id="286" depart="114.40">
        <route edges="7:5 5:3 3:18 18:19"/>
    </vehicle>
    <vehicle id="288" depart="115.20">
        <route edges="17:16 16:3 3:2 2:1 1:0 0:8 8:9"/>
    </vehicle>
    <vehicle id="290" depart="116.00">
        <route edges="19:18 18:3 3:2 2:1"/>
    </vehicle>
    <vehicle id="291" depart="116.40">
        <route edges="12:1 1:2 2:3 3:16 16:17"/>
    </vehicle>
    <vehicle id="292" depart="116.80">
        <route edges="4:0 0:10 10:11"/>
    </vehicle>
    <vehicle id="296" depart="118.40">
        <route edges="2:3 3:16 16:17"/>
    </vehicle>
    <vehicle id="298" depart="119.20">
        <route edges="4:0 0:1 1:2 2:3 3:5 5:7"/>
    </vehicle>
    <vehicle id="299" depart="119.60">
        <route edges="15:14 14:2 2:1 1:0 0:4 4:6"/>
    </vehicle>
    <vehicle id="302" depart="120.80">
        <route edges="11:10 10:0 0:1 1:2 2:3 3:18"/>
    </vehicle>
    <vehicle id="305" depart="122.00">
        <route edges="9:8 8:0 0:10 10:11"/>
    </vehicle>
    <vehicle id="308" depart="123.20">
        <route edges="5:3 3:2 2:1"/>
    </vehicle>
    <vehicle id="312" depart="124.80">
        <route edges="11:10 10:0 0:1 1:12 12:13"/>
    </vehicle>
    <vehicle id="313" depart="125.20">
        <route edges="11:10 10:0 0:8 8:9"/>
    </vehicle>
    <vehicle id="315" depart="126.00">
        <route edges="2:1"/>
    </vehicle>
    <vehicle id="318" depart="127.20">
        <route edges="6:4 4:0 0:1"/>
    </vehicle>
    <vehicle id="320" depart="128.00">
        <route edges="19:18 18:3 3:2"/>
    </vehicle>
    <vehicle id="325" depart="130.00">
        <route edges="15:14 14:2 2:3"/>
    </vehicle>
    <vehicle id="328" depart="131.20">
        <route edges="1:0 0:4"/>
    </vehicle>
    <vehicle id="331" depart="132.40">
        <route edges="8:0 0:10 10:11"/>
    </vehicle>
    <vehicle id="332" depart="132.80">
        <route edges="2:14 14:15"/>
    </vehicle>
    <vehicle id="333" depart="133.20">
        <route edges="3:2 2:1 1:0 0:8 8:9"/>
    </vehicle>
    <vehicle id="335" depart="134.00">
        <route edges="11:10 10:0 0:1 1:2 2:3 3:16 16:17"/>
    </vehicle>
    <vehicle id="337" depart="134.80">
        <route edges="14:2 2:1 1:0 0:4 4:6"/>
    </vehicle>
    <vehicle id="339" depart="135.60">
        <route edges="7:5 5:3 3:2 2:1"/>
    </vehicle>
    <vehicle id="340" depart="136.00">
        <route edges="13:12 12:1 1:0 0:4 4:6"/>
    </vehicle>
    <vehicle id="341" depart="136.40">
        <route edges="12:1 1:2 2:3 3:18 18:19"/>
    </vehicle>
    <vehicle id="346" depart="138.40">
        <route edges="7:5 5:3 3:2 2:14 14:15"/>
    </vehicle>
    <vehicle id="347" depart="138.80">
        <route edges="7:5 5:3 3:2 2:1 1:0 0:4"/>
    </vehicle>
    <vehicle id="348" depart="139.20">
        <route edges="10:0 0:1 1:2 2:14 14:15"/>
    </vehicle>
    <vehicle id="349" depart="139.60">
        <route edges="5:3 3:2 2:1 1:0 0:4 4:6"/>
    </vehicle>
    <vehicle id="350" depart="140.00">
        <route edges="5:3 3:2 2:1 1:12 12:13"/>
    </vehicle>
    <vehicle id="351" depart="140.40">
        <route edges="6:4 4:0"/>
    </vehicle>
    <vehicle id="353" depart="141.20">
        <route edges="15:14 14:2 2:1 1:0 0:10 10:11"/>
    </vehicle>
    <vehicle id="354" depart="141.60">
        <route edges="6:4 4:0 0:1 1:2 2:3 3:16 16:17"/>
    </vehicle>
    <vehicle id="356" depart="142.40">
        <route edges="19:18 18:3 3:2 2:1 1:0 0:4 4:6"/>
    </vehicle>
    <vehicle id="357" depart="142.80">
        <route edges="3:18 18:19"/>
    </vehicle>
    <vehicle id="360" depart="144.00">
        <route edges="17:16 16:3 3:2 2:1 1:0 0:4 4:6"/>
    </vehicle>
    <vehicle id="361" depart="144.40">
        <route edges="17:16 16:3 3:2 2:1 1:12 12:13"/>
    </vehicle>
    <vehicle id="362" depart="144.80">
        <route edges="7:5 5:3 3:2"/>
    </vehicle>
    <vehicle id="363" depart="145.20">
        <route edges="9:8 8:0 0:4 4:6"/>
    </vehicle>
    <vehicle id="366" depart="146.40">
        <route edges="9:8 8:0 0:1 1:2 2:3 3:18 18:19"/>
    </vehicle>
    <vehicle id="368" depart="147.20">
        <route edges="19:18 18:3 3:2 2:1 1:0 0:4"/>
    </vehicle>
    <vehicle id="370" depart="148.00">
        <route edges="11:10 10:0 0:1 1:2 2:3 3:16"/>
    </vehicle>
    <vehicle id="372" depart="148.80">
        <route edges="13:12 12:1 1:2 2:3 3:16"/>
    </vehicle>
    <vehicle id="373" depart="149.20">
        <route edges="2:1 1:0 0:4 4:6"/>
    </vehicle>
    <vehicle id="374" depart="149.60">
        <route edges="6:4 4:0 0:1 1:2 2:3 3:18 18:19"/>
    </vehicle>
    <vehicle id="375" depart="150.00">
        <route edges="11:10 10:0 0:4 4:6"/>
    </vehicle>
    <vehicle id="376" depart="150.40">
        <route edges="17:16 16:3 3:2 2:14 14:15"/>
    </vehicle>
    <vehicle id="377" depart="150.80">
        <route edges="1:0 0:10 10:11"/>
    </vehicle>
    <vehicle id="380" depart="152.00">
        <route edges="17:16 16:3 3:2 2:1 1:0 0:4 4:6"/>
    </vehicle>
    <vehicle id="381" depart="152.40">
        <route edges="6:4 4:0 0:1 1:2 2:3 3:18 18:19"/>
    </vehicle>
    <vehicle id="382" depart="152.80">
        <route edges="7:5 5:3 3:2 2:1"/>
    </vehicle>
    <vehicle id="383" depart="153.20">
        <route edges="5:3 3:2 2:1 1:0 0:8 8:9"/>
    </vehicle>
    <vehicle id="384" depart="153.60">
        <route edges="19:18 18:3 3:2 2:1 1:0 0:8"/>
    </vehicle>
    <vehicle id="385" depart="154.00">
        <route edges="5:3 3:2 2:1 1:0 0:4 4:6"/>
    </vehicle>
    <vehicle id="389" depart="155.60">
        <route edges="17:16 16:3 3:2 2:1 1:0"/>
    </vehicle>
    <vehicle id="390" depart="156.00">
        <route edges="8:0 0:1 1:12 12:13"/>
    </vehicle>
    <vehicle id="391" depart="156.40">
        <route edges="11:10 10:0 0:1 1:2 2:3"/>
    </vehicle>
    <vehicle id="394" depart="157.60">
        <route edges="7:5 5:3 3:2 2:1 1:0 0:4 4:6"/>
    </vehicle>
    <vehicle id="395" depart="158.00">
        <route edges="2:3 3:18 18:19"/>
    </vehicle>
    <vehicle id="398" depart="159.20">
        <route edges="9:8 8:0"/>
    </vehicle>
    <vehicle id="400" depart="160.00">
        <route edges="3:2 2:1 1:0"/>
    </vehicle>
    <vehicle id="406" depart="162.40">
        <route edges="15:14 14:2 2:1 1:0 0:4 4:6"/>
    </vehicle>
    <vehicle id="407" depart="162.80">
        <route edges="0:1 1:2"/>
    </vehicle>
    <vehicle id="409" depart="163.60">
        <route edges="3:5 5:7"/>
    </vehicle>
    <vehicle id="415" depart="166.00">
        <route edges="19:18 18:3 3:2 2:1 1:0 0:8 8:9"/>
    </vehicle>
    <vehicle id="416" depart="166.40">
        <route edges="18:3 3:2 2:1 1:12 12:13"/>
    </vehicle>
    <vehicle id="418" depart="167.20">
        <route edges="6:4 4:0 0:1 1:2 2:14 14:15"/>
    </vehicle>
    <vehicle id="419" depart="167.60">
        <route edges="6:4 4:0 0:1 1:2 2:3 3:5"/>
    </vehicle>
    <vehicle id="421" depart="168.40">
        <route edges="0:1 1:2 2:3 3:5 5:7"/>
    </vehicle>
    <vehicle id="423" depart="169.20">
        <route edges="15:14 14:2 2:1 1:0 0:4 4:6"/>
    </vehicle>
    <vehicle id="424" depart="169.60">
        <route edges="4:0 0:1 1:2 2:3 3:5"/>
    </vehicle>
    <vehicle id="426" depart="170.40">
        <route edges="11:10 10:0 0:8 8:9"/>
    </vehicle>
    <vehicle id="428" depart="171.20">
        <route edges="9:8 8:0 0:1 1:2 2:3"/>
    </vehicle>
    <vehicle id="429" depart="171.60">
        <route edges="15:14 14:2 2:1 1:0 0:4 4:6"/>
    </vehicle>
    <vehicle id="430" depart="172.00">
        <route edges="4:0 0:1 1:12 12:13"/>
    </vehicle>
    <vehicle id="431" depart="172.40">
        <route edges="4:0 0:1 1:2 2:3 3:5"/>
    </vehicle>
    <vehicle id="432" depart="172.80">
        <route edges="7:5 5:3 3:16 16:17"/>
    </vehicle>
    <vehicle id="433" depart="173.20">
        <route edges="14:2 2:3 3:16 16:17"/>
    </vehicle>
    <vehicle id="434" depart="173.60">
        <route edges="4:0 0:1 1:2 2:3 3:5 5:7"/>
    </vehicle>
    <vehicle id="435" depart="174.00">
        <route edges="7:5 5:3 3:2 2:1 1:12"/>
    </vehicle>
    <vehicle id="436" depart="174.40">
        <route edges="4:0 0:1 1:2 2:3 3:5 5:7"/>
    </vehicle>
    <vehicle id="438" depart="175.20">
        <route edges="6:4 4:0 0:1 1:2 2:3 3:16 16:17"/>
    </vehicle>
    <vehicle id="440" depart="176.00">
        <route edges="6:4 4:0"/>
    </vehicle>
    <vehicle id="442" depart="176.80">
        <route edges="3:2 2:1 1:0 0:10 10:11"/>
    </vehicle>
    <vehicle id="443" depart="177.20">
        <route edges="15:14 14:2 2:1 1:0 0:10 10:11"/>
    </vehicle>
    <vehicle id="444" depart="177.60">
        <route edges="19:18 18:3 3:5 5:7"/>
    </vehicle>
    <vehicle id="445" depart="178.00">
        <route edges="7:5 5:3 3:16 16:17"/>
    </vehicle>
    <vehicle id="446" depart="178.40">
        <route edges="6:4 4:0 0:1 1:12 12:13"/>
    </vehicle>
    <vehicle id="447" depart="178.80">
        <route edges="2:1 1:0 0:4"/>
    </vehicle>
    <vehicle id="451" depart="180.40">
        <route edges="17:16 16:3 3:2 2:1 1:0 0:10 10:11"/>
    </vehicle>
    <vehicle id="452" depart="180.80">
        <route edges="16:3 3:5 5:7"/>
    </vehicle>
    <vehicle id="456" depart="182.40">
        <route edges="8:0 0:1 1:2 2:3"/>
    </vehicle>
    <vehicle id="459" depart="183.60">
        <route edges="14:2 2:1 1:0 0:8 8:9"/>
    </vehicle>
    <vehicle id="462" depart="184.80">
        <route edges="17:16 16:3 3:2"/>
    </vehicle>
    <vehicle id="463" depart="185.20">
        <route edges="15:14 14:2 2:3 3:16"/>
    </vehicle>
    <vehicle id="464" depart="185.60">
        <route edges="6:4 4:0 0:1 1:12"/>
    </vehicle>
    <vehicle id="466" depart="186.40">
        <route edges="6:4 4:0 0:1 1:12 12:13"/>
    </vehicle>
    <vehicle id="467" depart="186.80">
        <route edges="6:4 4:0 0:10"/>
    </vehicle>
    <vehicle id="469" depart="187.60">
        <route edges="18:3 3:16 16:17"/>
    </vehicle>
    <vehicle id="470" depart="188.00">
        <route edges="15:14 14:2 2:1 1:0 0:8 8:9"/>
    </vehicle>
    <vehicle id="472" depart="188.80">
        <route edges="7:5 5:3 3:2 2:14 14:15"/>
    </vehicle>
    <vehicle id="473" depart="189.20">
        <route edges="16:3 3:5 5:7"/>
    </vehicle>
    <vehicle id="475" depart="190.00">
        <route edges="13:12 12:1 1:2 2:14 14:15"/>
    </vehicle>
    <vehicle id="476" depart="190.40">
        <route edges="11:10 10:0 0:4 4:6"/>
    </vehicle>
    <vehicle id="478" depart="191.20">
        <route edges="9:8 8:0 0:1 1:12 12:13"/>
    </vehicle>
    <vehicle id="479" depart="191.60">
        <route edges="13:12 12:1"/>
    </vehicle>
    <vehicle id="480" depart="192.00">
        <route edges="15:14 14:2 2:1"/>
    </vehicle>
    <vehicle id="481" depart="192.40">
        <route edges="3:18 18:19"/>
    </vehicle>
    <vehicle id="482" depart="192.80">
        <route edges="9:8 8:0 0:1 1:2 2:3 3:5 5:7"/>
    </vehicle>
    <vehicle id="483" depart="193.20">
        <route edges="1:0 0:4 4:6"/>
    </vehicle>
    <vehicle id="484" depart="193.60">
        <route edges="19:18 18:3 3:2 2:14 14:15"/>
    </vehicle>
    <vehicle id="490" depart="196.00">
        <route edges="19:18 18:3 3:2 2:1 1:0"/>
    </vehicle>
    <vehicle id="491" depart="196.40">
        <route edges="3:2 2:1 1:12 12:13"/>
    </vehicle>
    <vehicle id="492" depart="196.80">
        <route edges="15:14 14:2 2:3 3:18"/>
    </vehicle>
    <vehicle id="495" depart="198.00">
        <route edges="19:18 18:3 3:2 2:1"/>
    </vehicle>
    <vehicle id="499" depart="199.60">
        <route edges="13:12 12:1 1:0 0:10 10:11"/>
    </vehicle>
    <vehicle id="501" depart="200.40">
        <route edges="19:18 18:3"/>
    </vehicle>
    <vehicle id="502" depart="200.80">
        <route edges="1:2 2:3 3:16 16:17"/>
    </vehicle>
    <vehicle id="504" depart="201.60">
        <route edges="17:16 16:3 3:2"/>
    </vehicle>
    <vehicle id="505" depart="202.00">
        <route edges="7:5 5:3 3:2 2:1 1:0 0:4 4:6"/>
    </vehicle>
    <vehicle id="507" depart="202.80">
        <route edges="1:2 2:3 3:5 5:7"/>
    </vehicle>
    <vehicle id="510" depart="204.00">
        <route edges="4:0 0:1 1:2 2:3 3:5 5:7"/>
    </vehicle>
    <vehicle id="511" depart="204.40">
        <route edges="7:5 5:3 3:2 2:1 1:0"/>
    </vehicle>
    <vehicle id="513" depart="205.20">
        <route edges="19:18 18:3 3:2 2:1 1:0"/>
    </vehicle>
    <vehicle id="514" depart="205.60">
        <route edges="12:1 1:2 2:3 3:5"/>
    </vehicle>
    <vehicle id="515" depart="206.00">
        <route edges="17:16 16:3 3:2 2:14"/>
    </vehicle>
    <vehicle id="517" depart="206.80">
        <route edges="9:8 8:0 0:1 1:2 2:3"/>
    </vehicle>
    <vehicle id="518" depart="207.20">
        <route edges="9:8 8:0 0:1 1:2 2:3"/>
    </vehicle>
    <vehicle id="519" depart="207.60">
        <route edges="13:12 12:1 1:0 0:4"/>
    </vehicle>
    <vehicle id="520" depart="208.00">
        <route edges="9:8 8:0 0:4 4:6"/>
    </vehicle>
    <vehicle id="521" depart="208.40">
        <route edges="4:0"/>
    </vehicle>
    <vehicle id="522" depart="208.80">
        <route edges="5:3 3:2 2:1 1:0 0:4 4:6"/>
    </vehicle>
    <vehicle id="527" depart="210.80">
        <route edges="7:5 5:3 3:2 2:1 1:0 0:8 8:9"/>
    </vehicle>
    <vehicle id="529" depart="211.60">
        <route edges="8:0"/>
    </vehicle>
    <vehicle id="531" depart="212.40">