<?xml version="1.0" encoding="UTF-8"?>

<!-- generated on Thu Oct 23 22:34:39 2014 by SUMO duarouter Version 0.18.0
<?xml version="1.0" encoding="UTF-8"?>

<configuration xmlns:xsi="http://www.w3.org/2001/XMLSchema-instance" xsi:noNamespaceSchemaLocation="http://sumo.sf.net/xsd/duarouterConfiguration.xsd">

    <input>
        <net-file value="corridor.net.xml"/>
        <trip-files value="experimentos/corridor.p0.7.7.trips.xml"/>
    </input>

    <output>
        <output-file value="experimentos/corridor.p0.7.7.rou.xml"/>
    </output>

    <processing>
        <ignore-errors value="true"/>
    </processing>

    <random_number>
        <random value="true"/>
    </random_number>

</configuration>
-->

<routes xmlns:xsi="http://www.w3.org/2001/XMLSchema-instance" xsi:noNamespaceSchemaLocation="http://sumo.sf.net/xsd/routes_file.xsd">
    <vehicle id="1" depart="0.70">
        <route edges="19:18 18:3 3:2 2:1 1:0 0:4 4:6"/>
    </vehicle>
    <vehicle id="2" depart="1.40">
        <route edges="4:0 0:8 8:9"/>
    </vehicle>
    <vehicle id="3" depart="2.10">
        <route edges="11:10 10:0 0:1 1:12 12:13"/>
    </vehicle>
    <vehicle id="8" depart="5.60">
        <route edges="9:8 8:0 0:1 1:12 12:13"/>
    </vehicle>
    <vehicle id="13" depart="9.10">
        <route edges="13:12 12:1 1:0 0:8"/>
    </vehicle>
    <vehicle id="14" depart="9.80">
        <route edges="12:1 1:2 2:3 3:18"/>
    </vehicle>
    <vehicle id="16" depart="11.20">
        <route edges="19:18 18:3 3:2"/>
    </vehicle>
    <vehicle id="17" depart="11.90">
        <route edges="4:0 0:1 1:2 2:3"/>
    </vehicle>
    <vehicle id="19" depart="13.30">
        <route edges="6:4 4:0 0:10"/>
    </vehicle>
    <vehicle id="21" depart="14.70">
        <route edges="7:5 5:3 3:2 2:1 1:0 0:10 10:11"/>
    </vehicle>
    <vehicle id="22" depart="15.40">
        <route edges="19:18 18:3 3:5 5:7"/>
    </vehicle>
    <vehicle id="23" depart="16.10">
        <route edges="6:4 4:0 0:1 1:2 2:3 3:5 5:7"/>
    </vehicle>
    <vehicle id="26" depart="18.20">
        <route edges="13:12 12:1 1:0 0:4 4:6"/>
    </vehicle>
    <vehicle id="27" depart="18.90">
        <route edges="19:18 18:3 3:2 2:1 1:12 12:13"/>
    </vehicle>
    <vehicle id="29" depart="20.30">
        <route edges="19:18 18:3 3:2 2:1 1:0 0:10 10:11"/>
    </vehicle>
    <vehicle id="30" depart="21.00">
        <route edges="2:3 3:18 18:19"/>
    </vehicle>
    <vehicle id="32" depart="22.40">
        <route edges="6:4 4:0 0:1 1:2 2:3 3:5 5:7"/>
    </vehicle>
    <vehicle id="33" depart="23.10">
        <route edges="5:3 3:2 2:1 1:0 0:8 8:9"/>
    </vehicle>
    <vehicle id="35" depart="24.50">
        <route edges="2:3 3:16 16:17"/>
    </vehicle>
    <vehicle id="37" depart="25.90">
        <route edges="15:14 14:2 2:1"/>
    </vehicle>
    <vehicle id="38" depart="26.60">
        <route edges="7:5 5:3 3:16 16:17"/>
    </vehicle>
    <vehicle id="43" depart="30.10">
        <route edges="15:14 14:2 2:1"/>
    </vehicle>
    <vehicle id="45" depart="31.50">
        <route edges="6:4 4:0 0:1 1:2 2:3"/>
    </vehicle>
    <vehicle id="47" depart="32.90">
        <route edges="6:4 4:0 0:1 1:2 2:3 3:18 18:19"/>
    </vehicle>
    <vehicle id="48" depart="33.60">
        <route edges="13:12 12:1"/>
    </vehicle>
    <vehicle id="49" depart="34.30">
        <route edges="9:8 8:0 0:1 1:2 2:3 3:5 5:7"/>
    </vehicle>
    <vehicle id="50" depart="35.00">
        <route edges="1:0 0:4 4:6"/>
    </vehicle>
    <vehicle id="52" depart="36.40">
        <route edges="3:2 2:1 1:0 0:4 4:6"/>
    </vehicle>
    <vehicle id="53" depart="37.10">
        <route edges="17:16 16:3 3:2 2:1 1:0 0:4 4:6"/>
    </vehicle>
    <vehicle id="54" depart="37.80">
        <route edges="12:1 1:0 0:4 4:6"/>
    </vehicle>
    <vehicle id="55" depart="38.50">
        <route edges="8:0 0:4"/>
    </vehicle>
    <vehicle id="56" depart="39.20">
        <route edges="19:18 18:3 3:2 2:14 14:15"/>
    </vehicle>
    <vehicle id="58" depart="40.60">
        <route edges="12:1 1:2 2:3 3:18 18:19"/>
    </vehicle>
    <vehicle id="59" depart="41.30">
        <route edges="1:0 0:4"/>
    </vehicle>
    <vehicle id="60" depart="42.00">
        <route edges="6:4 4:0"/>
    </vehicle>
    <vehicle id="62" depart="43.40">
        <route edges="15:14 14:2 2:3 3:5 5:7"/>
    </vehicle>
    <vehicle id="63" depart="44.10">
        <route edges="2:3 3:5 5:7"/>
    </vehicle>
    <vehicle id="65" depart="45.50">
        <route edges="3:2 2:1 1:0 0:10 10:11"/>
    </vehicle>
    <vehicle id="68" depart="47.60">
        <route edges="11:10 10:0 0:1 1:2 2:3 3:5 5:7"/>
    </vehicle>
    <vehicle id="70" depart="49.00">
        <route edges="7:5 5:3 3:2 2:1 1:0 0:8 8:9"/>
    </vehicle>
    <vehicle id="71" depart="49.70">
        <route edges="2:3 3:5 5:7"/>
    </vehicle>
    <vehicle id="74" depart="51.80">
        <route edges="19:18 18:3 3:2 2:1 1:0 0:10 10:11"/>
    </vehicle>
    <vehicle id="75" depart="52.50">
        <route edges="11:10 10:0 0:8 8:9"/>
    </vehicle>
    <vehicle id="76" depart="53.20">
        <route edges="15:14 14:2 2:3 3:16 16:17"/>
    </vehicle>
    <vehicle id="80" depart="56.00">
        <route edges="3:18 18:19"/>
    </vehicle>
    <vehicle id="82" depart="57.40">
        <route edges="11:10 10:0 0:1 1:12"/>
    </vehicle>
    <vehicle id="83" depart="58.10">
        <route edges="13:12 12:1 1:0 0:4 4:6"/>
    </vehicle>
    <vehicle id="84" depart="58.80">
        <route edges="14:2 2:1 1:0 0:10"/>
    </vehicle>
    <vehicle id="86" depart="60.20">
        <route edges="19:18 18:3 3:2 2:1 1:0 0:4 4:6"/>
    </vehicle>
    <vehicle id="87" depart="60.90">
        <route edges="0:1 1:2 2:3 3:16"/>
    </vehicle>
    <vehicle id="89" depart="62.30">
        <route edges="15:14 14:2 2:1 1:0 0:4"/>
    </vehicle>
    <vehicle id="92" depart="64.40">
        <route edges="6:4 4:0 0:1 1:2 2:3 3:16 16:17"/>
    </vehicle>
    <vehicle id="95" depart="66.50">
        <route edges="0:4"/>
    </vehicle>
    <vehicle id="96" depart="67.20">
        <route edges="19:18 18:3 3:5 5:7"/>
    </vehicle>
    <vehicle id="98" depart="68.60">
        <route edges="7:5 5:3 3:2 2:1 1:0 0:10 10:11"/>
    </vehicle>
    <vehicle id="100" depart="70.00">
        <route edges="15:14 14:2 2:1 1:0"/>
    </vehicle>
    <vehicle id="102" depart="71.40">
        <route edges="3:2 2:1 1:0 0:8"/>
    </vehicle>
    <vehicle id="103" depart="72.10">
        <route edges="19:18 18:3 3:2 2:1 1:0 0:4 4:6"/>
    </vehicle>
    <vehicle id="105" depart="73.50">
        <route edges="6:4 4:0 0:1 1:2 2:3 3:5 5:7"/>
    </vehicle>
    <vehicle id="106" depart="74.20">
        <route edges="17:16 16:3 3:2 2:1 1:0 0:10 10:11"/>
    </vehicle>
    <vehicle id="107" depart="74.90">
        <route edges="7:5 5:3 3:2 2:1 1:0 0:8 8:9"/>
    </vehicle>
    <vehicle id="109" depart="76.30">
        <route edges="19:18 18:3 3:2 2:1 1:12 12:13"/>
    </vehicle>
    <vehicle id="111" depart="77.70">
        <route edges="17:16 16:3 3:2 2:1 1:0 0:10 10:11"/>
    </vehicle>
    <vehicle id="112" depart="78.40">
        <route edges="11:10 10:0 0:1 1:2 2:3 3:5"/>
    </vehicle>
    <vehicle id="113" depart="79.10">
        <route edges="19:18 18:3 3:2"/>
    </vehicle>
    <vehicle id="114" depart="79.80">
        <route edges="7:5 5:3 3:2 2:14"/>
    </vehicle>
    <vehicle id="115" depart="80.50">
        <route edges="16:3 3:2 2:1 1:12 12:13"/>
    </vehicle>
    <vehicle id="120" depart="84.00">
        <route edges="17:16 16:3 3:5"/>
    </vehicle>
    <vehicle id="122" depart="85.40">
        <route edges="2:3 3:16"/>
    </vehicle>
    <vehicle id="123" depart="86.10">
        <route edges="17:16 16:3 3:2 2:1 1:0 0:4 4:6"/>
    </vehicle>
    <vehicle id="124" depart="86.80">
        <route edges="7:5 5:3 3:18 18:19"/>
    </vehicle>
    <vehicle id="128" depart="89.60">
        <route edges="19:18 18:3 3:2"/>
    </vehicle>
    <vehicle id="130" depart="91.00">
        <route edges="15:14 14:2 2:3 3:5 5:7"/>
    </vehicle>
    <vehicle id="131" depart="91.70">
        <route edges="1:2 2:3 3:5"/>
    </vehicle>
    <vehicle id="132" depart="92.40">
        <route edges="18:3 3:2 2:1 1:0 0:4"/>
    </vehicle>
    <vehicle id="133" depart="93.10">
        <route edges="10:0 0:1 1:2 2:3 3:5"/>
    </vehicle>
    <vehicle id="135" depart="94.50">
        <route edges="1:0 0:4 4:6"/>
    </vehicle>
    <vehicle id="137" depart="95.90">
        <route edges="6:4 4:0 0:1 1:2 2:3 3:16"/>
    </vehicle>
    <vehicle id="138" depart="96.60">
        <route edges="8:0 0:1 1:2 2:3 3:5 5:7"/>
    </vehicle>
    <vehicle id="139" depart="97.30">
        <route edges="8:0 0:1 1:2 2:14"/>
    </vehicle>
    <vehicle id="143" depart="100.10">
        <route edges="7:5 5:3 3:2 2:14 14:15"/>
    </vehicle>
    <vehicle id="144" depart="100.80">
        <route edges="4:0 0:1 1:2 2:3 3:18"/>
    </vehicle>
    <vehicle id="145" depart="101.50">
        <route edges="7:5 5:3 3:2 2:1"/>
    </vehicle>
    <vehicle id="146" depart="102.20">
        <route edges="15:14 14:2 2:3 3:5 5:7"/>
    </vehicle>
    <vehicle id="148" depart="103.60">
        <route edges="19:18 18:3 3:2 2:14 14:15"/>
    </vehicle>
    <vehicle id="149" depart="104.30">
        <route edges="11:10 10:0 0:1 1:2 2:3 3:18 18:19"/>
    </vehicle>
    <vehicle id="151" depart="105.70">
        <route edges="5:3 3:18 18:19"/>
    </vehicle>
    <vehicle id="152" depart="106.40">
        <route edges="12:1 1:2 2:3 3:18 18:19"/>
    </vehicle>
    <vehicle id="153" depart="107.10">
        <route edges="6:4 4:0 0:1 1:2 2:3 3:5 5:7"/>
    </vehicle>
    <vehicle id="155" depart="108.50">
        <route edges="3:2 2:1 1:0 0:8 8:9"/>
    </vehicle>
    <vehicle id="156" depart="109.20">
        <route edges="13:12 12:1 1:0 0:8"/>
    </vehicle>
    <vehicle id="157" depart="109.90">
        <route edges="17:16 16:3 3:5"/>
    </vehicle>
    <vehicle id="160" depart="112.00">
        <route edges="11:10 10:0 0:1 1:2"/>
    </vehicle>
    <vehicle id="161" depart="112.70">
        <route edges="6:4 4:0 0:1 1:2 2:3 3:18 18:19"/>
    </vehicle>
    <vehicle id="162" depart="113.40">
        <route edges="6:4 4:0 0:10 10:11"/>
    </vehicle>
    <vehicle id="164" depart="114.80">
        <route edges="16:3 3:2 2:1"/>
    </vehicle>
    <vehicle id="172" depart="120.40">
        <route edges="9:8 8:0 0:1 1:2 2:3"/>
    </vehicle>
    <vehicle id="173" depart="121.10">
        <route edges="2:14 14:15"/>
    </vehicle>
    <vehicle id="178" depart="124.60">
        <route edges="1:2 2:3 3:5 5:7"/>
    </vehicle>
    <vehicle id="179" depart="125.30">
        <route edges="3:2 2:1 1:0 0:4 4:6"/>
    </vehicle>
    <vehicle id="180" depart="126.00">
        <route edges="3:2 2:1 1:0 0:4 4:6"/>
    </vehicle>
    <vehicle id="182" depart="127.40">
        <route edges="6:4 4:0 0:1 1:2 2:3 3:5"/>
    </vehicle>
    <vehicle id="187" depart="130.90">
        <route edges="10:0 0:1 1:2 2:3 3:18 18:19"/>
    </vehicle>
    <vehicle id="188" depart="131.60">
        <route edges="6:4 4:0 0:8 8:9"/>
    </vehicle>
    <vehicle id="189" depart="132.30">
        <route edges="7:5 5:3 3:2"/>
    </vehicle>
    <vehicle id="190" depart="133.00">
        <route edges="6:4 4:0 0:1"/>
    </vehicle>
    <vehicle id="196" depart="137.20">
        <route edges="17:16 16:3 3:2 2:1 1:0 0:8"/>
    </vehicle>
    <vehicle id="197" depart="137.90">
        <route edges="19:18 18:3 3:2 2:1 1:0 0:4 4:6"/>
    </vehicle>
    <vehicle id="198" depart="138.60">
        <route edges="9:8 8:0 0:1 1:2 2:3 3:5 5:7"/>
    </vehicle>
    <vehicle id="199" depart="139.30">
        <route edges="3:5"/>
    </vehicle>
    <vehicle id="200" depart="140.00">
        <route edges="16:3 3:2 2:1 1:12 12:13"/>
    </vehicle>
    <vehicle id="201" depart="140.70">
        <route edges="1:2 2:3 3:5 5:7"/>
    </vehicle>
    <vehicle id="202" depart="141.40">
        <route edges="5:3 3:18 18:19"/>
    </vehicle>
    <vehicle id="203" depart="142.10">
        <route edges="11:10 10:0 0:1 1:2 2:3"/>
    </vehicle>
    <vehicle id="204" depart="142.80">
        <route edges="13:12 12:1 1:2 2:3 3:18"/>
    </vehicle>
    <vehicle id="205" depart="143.50">
        <route edges="15:14 14:2 2:1 1:0 0:10 10:11"/>
    </vehicle>
    <vehicle id="208" depart="145.60">
        <route edges="15:14 14:2 2:3 3:18"/>
    </vehicle>
    <vehicle id="210" depart="147.00">
        <route edges="10:0 0:4"/>
    </vehicle>
    <vehicle id="213" depart="149.10">
        <route edges="7:5 5:3"/>
    </vehicle>
    <vehicle id="214" depart="149.80">
        <route edges="0:4"/>
    </vehicle>
    <vehicle id="218" depart="152.60">
        <route edges="4:0 0:1"/>
    </vehicle>
    <vehicle id="220" depart="154.00">
        <route edges="4:0 0:1 1:2 2:3 3:18 18:19"/>
    </vehicle>
    <vehicle id="224" depart="156.80">
        <route edges="2:3 3:5 5:7"/>
    </vehicle>
    <vehicle id="225" depart="157.50">
        <route edges="0:1 1:12"/>
    </vehicle>
    <vehicle id="226" depart="158.20">
        <route edges="2:14 14:15"/>
    </vehicle>
    <vehicle id="227" depart="158.90">
        <route edges="9:8 8:0 0:10 10:11"/>
    </vehicle>
    <vehicle id="228" depart="159.60">
        <route edges="16:3 3:2 2:1 1:0 0:4"/>
    </vehicle>
    <vehicle id="229" depart="160.30">
        <route edges="12:1 1:2 2:3 3:5 5:7"/>
    </vehicle>
    <vehicle id="230" depart="161.00">
        <route edges="4:0 0:1 1:12"/>
    </vehicle>
    <vehicle id="232" depart="162.40">
        <route edges="11:10 10:0 0:1 1:12 12:13"/>
    </vehicle>
    <vehicle id="233" depart="163.10">
        <route edges="7:5 5:3 3:2 2:1 1:12"/>
    </vehicle>
    <vehicle id="235" depart="164.50">
        <route edges="5:3 3:2 2:1 1:0 0:8 8:9"/>
    </vehicle>
    <vehicle id="236" depart="165.20">
        <route edges="15:14 14:2 2:1 1:12"/>
    </vehicle>
    <vehicle id="238" depart="166.60">
        <route edges="13:12 12:1 1:0 0:8 8:9"/>
    </vehicle>
    <vehicle id="243" depart="170.10">
        <route edges="3:2 2:1"/>
    </vehicle>
    <vehicle id="246" depart="172.20">
        <route edges="7:5 5:3 3:2 2:1 1:12"/>
    </vehicle>
    <vehicle id="247" depart="172.90">
        <route edges="3:5"/>
    </vehicle>
    <vehicle id="249" depart="174.30">
        <route edges="6:4 4:0 0:1 1:2 2:3 3:5 5:7"/>
    </vehicle>
    <vehicle id="252" depart="176.40">
        <route edges="17:16 16:3 3:2 2:1 1:0"/>
    </vehicle>
    <vehicle id="253" depart="177.10">
        <route edges="7:5 5:3 3:18 18:19"/>
    </vehicle>
    <vehicle id="256" depart="179.20">
        <route edges="11:10 10:0 0:1 1:2 2:3 3:18 18:19"/>
    </vehicle>
    <vehicle id="259" depart="181.30">
        <route edges="3:5 5:7"/>
    </vehicle>
    <vehicle id="265" depart="185.50">
        <route edges="6:4 4:0 0:1 1:12 12:13"/>
    </vehicle>
    <vehicle id="267" depart="186.90">
        <route edges="1:0 0:4"/>
    </vehicle>
    <vehicle id="268" depart="187.60">
        <route edges="2:1 1:0 0:8 8:9"/>
    </vehicle>
    <vehicle id="272" depart="190.40">
        <route edges="14:2 2:1 1:0 0:8"/>
    </vehicle>
    <vehicle id="274" depart="191.80">
        <route edges="5:3 3:2 2:1 1:12"/>
    </vehicle>
    <vehicle id="276" depart="193.20">
        <route edges="17:16 16:3 3:2 2:1 1:12 12:13"/>
    </vehicle>
    <vehicle id="280" depart="196.00">
        <route edges="13:12 12:1 1:2 2:3 3:18 18:19"/>
    </vehicle>
    <vehicle id="282" depart="197.40">
        <route edges="3:2 2:1 1:12 12:13"/>
    </vehicle>
    <vehicle id="283" depart="198.10">
        <route edges="17:16 16:3 3:2"/>
    </vehicle>
    <vehicle id="284" depart="198.80">
        <route edges="15:14 14:2 2:1 1:0 0:4"/>
    </vehicle>
    <vehicle id="288" depart="201.60">
        <route edges="12:1 1:2 2:3"/>
    </vehicle>
    <vehicle id="289" depart="202.30">
        <route edges="19:18 18:3 3:2 2:1 1:0 0:10 10:11"/>
    </vehicle>
    <vehicle id="290" depart="203.00">
        <route edges="1:2 2:3 3:16 16:17"/>
    </vehicle>
    <vehicle id="291" depart="203.70">
        <route edges="15:14 14:2 2:3 3:5 5:7"/>
    </vehicle>
    <vehicle id="294" depart="205.80">
        <route edges="6:4 4:0 0:1 1:2 2:3 3:18 18:19"/>
    </vehicle>
    <vehicle id="298" depart="208.60">
        <route edges="6:4 4:0 0:10 10:11"/>
    </vehicle>
    <vehicle id="300" depart="210.00">
        <route edges="17:16 16:3 3:2 2:1 1:0 0:4 4:6"/>
    </vehicle>
    <vehicle id="303" depart="212.10">
        <route edges="5:3 3:2 2:1 1:0 0:4 4:6"/>
    </vehicle>
    <vehicle id="304" depart="212.80">
        <route edges="19:18 18:3 3:2 2:1 1:0 0:10 10:11"/>
    </vehicle>
    <vehicle id="305" depart="213.50">
        <route edges="0:4 4:6"/>
    </vehicle>
    <vehicle id="306" depart="214.20">
        <route edges="11:10 10:0 0:1 1:2 2:3 3:16"/>
    </vehicle>
    <vehicle id="307" depart="214.90">
        <route edges="0:1 1:2 2:3"/>
    </vehicle>
    <vehicle id="308" depart="215.60">
        <route edges="6:4 4:0 0:1 1:2 2:3"/>
    </vehicle>
    <vehicle id="310" depart="217.00">
        <route edges="15:14 14:2 2:1 1:0 0:10"/>
    </vehicle>
    <vehicle id="311" depart="217.70">
        <route edges="8:0 0:1 1:12 12:13"/>
    </vehicle>
    <vehicle id="312" depart="218.40">
        <route edges="7:5 5:3 3:2 2:1 1:0"/>
    </vehicle>
    <vehicle id="316" depart="221.20">
        <route edges="0:4 4:6"/>
    </vehicle>
    <vehicle id="317" depart="221.90">
        <route edges="11:10 10:0 0:1 1:2 2:3 3:16 16:17"/>
    </vehicle>
    <vehicle id="319" depart="223.30">
        <route edges="15:14 14:2 2:1 1:0 0:4 4:6"/>
    </vehicle>
    <vehicle id="321" depart="224.70">
        <route edges="8:0 0:1 1:2 2:14"/>
    </vehicle>
    <vehicle id="323" depart="226.10">
        <route edges="13:12 12:1 1:0 0:10 10:11"/>
    </vehicle>
    <vehicle id="324" depart="226.80">
        <route edges="12:1 1:2 2:3 3:5 5:7"/>
    </vehicle>
    <vehicle id="325" depart="227.50">
        <route edges="5:3 3:2 2:1 1:0 0:4 4:6"/>
    </vehicle>
    <vehicle id="326" depart="228.20">
        <route edges="9:8 8:0 0:1 1:12 12:13"/>
    </vehicle>
    <vehicle id="327" depart="228.90">
        <route edges="7:5 5:3 3:18 18:19"/>
    </vehicle>
    <vehicle id="330" depart="231.00">
        <route edges="6:4 4:0 0:1 1:2 2:3 3:5 5:7"/>
    </vehicle>
    <vehicle id="333" depart="233.10">
        <route edges="10:0 0:1 1:2 2:3 3:5"/>
    </vehicle>
    <vehicle id="336" depart="235.20">
        <route edges="5:3"/>
    </vehicle>
    <vehicle id="338" depart="236.60">
        <route edges="8:0 0:1 1:2 2:3"/>
    </vehicle>
    <vehicle id="339" depart="237.30">
        <route edges="10:0 0:1 1:2 2:3 3:16 16:17"/>
    </vehicle>
    <vehicle id="340" depart="238.00">
        <route edges="6:4 4:0 0:1 1:2 2:3 3:18 18:19"/>
    </vehicle>
    <vehicle id="342" depart="239.40">
        <route edges="0:1 1:2 2:3 3:16 16:17"/>
    </vehicle>
    <vehicle id="343" depart="240.10">
        <route edges="15:14 14:2 2:3 3:5 5:7"/>
    </vehicle>
    <vehicle id="344" depart="240.80">
        <route edges="1:2 2:3 3:18 18:19"/>
    </vehicle>
    <vehicle id="349" depart="244.30">
        <route edges="19:18 18:3 3:2 2:1 1:0 0:10 10:11"/>
    </vehicle>
    <vehicle id="351" depart="245.70">
        <route edges="6:4 4:0 0:10"/>
    </vehicle>
    <vehicle id="352" depart="246.40">
        <route edges="6:4 4:0 0:1 1:2 2:3 3:18 18:19"/>
    </vehicle>
    <vehicle id="355" depart="248.50">
        <route edges="7:5 5:3 3:2 2:1 1:12 12:13"/>
    </vehicle>
    <vehicle id="357" depart="249.90">
        <route edges="14:2 2:3"/>
    </vehicle>
    <vehicle id="359" depart="251.30">
        <route edges="6:4 4:0 0:8 8:9"/>
    </vehicle>
    <vehicle id="361" depart="252.70">
        <route edges="9:8 8:0 0:1 1:2 2:3 3:16 16:17"/>
    </vehicle>
    <vehicle id="363" depart="254.10">
        <route edges="15:14 14:2 2:3 3:5 5:7"/>
    </vehicle>
    <vehicle id="366" depart="256.20">
        <route edges="12:1 1:0 0:4"/>
    </vehicle>
    <vehicle id="368" depart="257.60">
        <route edges="7:5 5:3 3:2 2:1 1:12 12:13"/>
    </vehicle>
    <vehicle id="369" depart="258.30">
        <route edges="0:1 1:12 12:13"/>
    </vehicle>
    <vehicle id="370" depart="259.00">
        <route edges="11:10 10:0 0:4 4:6"/>
    </vehicle>
    <vehicle id="371" depart="259.70">
        <route edges="6:4 4:0 0:1 1:2 2:3 3:5 5:7"/>
    </vehicle>
    <vehicle id="373" depart="261.10">
        <route edges="7:5 5:3 3:2 2:14"/>
    </vehicle>
    <vehicle id="375" depart="262.50">
        <route edges="0:4"/>
    </vehicle>
    <vehicle id="376" depart="263.20">
        <route edges="11:10 10:0 0:4 4:6"/>
    </vehicle>
    <vehicle id="377" depart="263.90">
        <route edges="7:5 5:3 3:2 2:1 1:12"/>
    </vehicle>
    <vehicle id="378" depart="264.60">
        <route edges="1:2 2:3 3:16 16:17"/>
    </vehicle>
    <vehicle id="379" depart="265.30">
        <route edges="0:4"/>
    </vehicle>
    <vehicle id="380" depart="266.00">
        <route edges="15:14 14:2 2:1 1:0 0:4"/>
    </vehicle>
    <vehicle id="381" depart="266.70">
        <route edges="10:0 0:4 4:6"/>
    </vehicle>
    <vehicle id="382" depart="267.40">
        <route edges="6:4 4:0 0:1 1:2 2:3"/>
    </vehicle>
    <vehicle id="384" depart="268.80">
        <route edges="6:4 4:0 0:8 8:9"/>
    </vehicle>
    <vehicle id="385" depart="269.50">
        <route edges="6:4 4:0 0:1 1:2 2:3 3:5"/>
    </vehicle>
    <vehicle id="387" depart="270.90">
        <route edges="16:3 3:18 18:19"/>
    </vehicle>
    <vehicle id="393" depart="275.10">
        <route edges="8:0 0:1 1:12 12:13"/>
    </vehicle>
    <vehicle id="395" depart="276.50">
        <route edges="3:5"/>
    </vehicle>
    <vehicle id="397" depart="277.90">
        <route edges="15:14 14:2 2:1 1:0 0:8 8:9"/>
    </vehicle>
    <vehicle id="398" depart="278.60">
        <route edges="17:16 16:3 3:18 18:19"/>
    </vehicle>
    <vehicle id="400" depart="280.00">
        <route edges="15:14 14:2 2:1 1:0 0:4 4:6"/>
    </vehicle>
    <vehicle id="402" depart="281.40">
        <route edges="7:5 5:3 3:18"/>
    </vehicle>
    <vehicle id="403" depart="282.10">
        <route edges="14:2 2:1 1:0 0:8"/>
    </vehicle>
    <vehicle id="408" depart="285.60">
        <route edges="13:12 12:1 1:2 2:3 3:18 18:19"/>
    </vehicle>
    <vehicle id="409" depart="286.30">
        <route edges="5:3 3:16 16:17"/>
    </vehicle>
    <vehicle id="412" depart="288.40">
        <route edges="4:0 0:1 1:2 2:3 3:18 18:19"/>
    </vehicle>
    <vehicle id="415" depart="290.50">
        <route edges="6:4 4:0 0:1 1:2 2:3 3:5 5:7"/>
    </vehicle>
    <vehicle id="416" depart="291.20">
        <route edges="7:5 5:3 3:2 2:1 1:0 0:8"/>
    </vehicle>
    <vehicle id="417" depart="291.90">
        <route edges="7:5 5:3 3:2"/>
    </vehicle>
    <vehicle id="418" depart="292.60">
        <route edges="19:18 18:3 3:2 2:1 1:0 0:10 10:11"/>
    </vehicle>
    <vehicle id="421" depart="294.70">
        <route edges="10:0 0:8 8:9"/>
    </vehicle>
    <vehicle id="422" depart="295.40">
        <route edges="18:3 3:2 2:1 1:0 0:4"/>
    </vehicle>
    <vehicle id="425" depart="297.50">
        <route edges="14:2 2:1 1:0 0:10"/>
    </vehicle>
    <vehicle id="428" depart="299.60">
        <route edges="19:18 18:3 3:2 2:1 1:0 0:4 4:6"/>
    </vehicle>
    <vehicle id="432" depart="302.40">
        <route edges="6:4 4:0 0:1 1:2 2:3"/>
    </vehicle>
    <vehicle id="433" depart="303.10">
        <route edges="14:2 2:1 1:12 12:13"/>
    </vehicle>
    <vehicle id="434" depart="303.80">
        <route edges="6:4 4:0 0:1 1:12 12:13"/>
    </vehicle>
    <vehicle id="437" depart="305.90">
        <route edges="19:18 18:3 3:2 2:1 1:0 0:4 4:6"/>
    </vehicle>
    <vehicle id="438" depart="306.60">
        <route edges="4:0 0:1"/>
    </vehicle>
    <vehicle id="439" depart="307.30">
        <route edges="1:0 0:10 10:11"/>
    </vehicle>
    <vehicle id="441" depart="308.70">
        <route edges="6:4 4:0 0:1 1:2 2:3 3:16"/>
    </vehicle>
    <vehicle id="442" depart="309.40">
        <route edges="1:0 0:8 8:9"/>
    </vehicle>
    <vehicle id="446" depart="312.20">
        <route edges="5:3 3:2 2:1 1:12 12:13"/>
    </vehicle>
    <vehicle id="448" depart="313.60">
        <route edges="5:3 3:16"/>
    </vehicle>
    <vehicle id="450" depart="315.00">
        <route edges="15:14 14:2 2:3 3:5 5:7"/>
    </vehicle>
    <vehicle id="451" depart="315.70">
        <route edges="6:4 4:0 0:1 1:2 2:3 3:16 16:17"/>
    </vehicle>
    <vehicle id="454" depart="317.80">
        <route edges="7:5 5:3 3:2 2:1 1:12 12:13"/>
    </vehicle>
    <vehicle id="455" depart="318.50">
        <route edges="7:5 5:3 3:2 2:1 1:12 12:13"/>
    </vehicle>
    <vehicle id="456" depart="319.20">
        <route edges="15:14 14:2 2:3 3:5 5:7"/>
    </vehicle>
    <vehicle id="459" depart="321.30">
        <route edges="10:0 0:1 1:2 2:3 3:5 5:7"/>
    </vehicle>
    <vehicle id="461" depart="322.70">
        <route edges="7:5 5:3 3:2"/>
    </vehicle>
    <vehicle id="462" depart="323.40">
        <route edges="7:5 5:3 3:18"/>
    </vehicle>
    <vehicle id="464" depart="324.80">
        <route edges="11:10 10:0 0:1 1:2 2:3 3:5 5:7"/>
    </vehicle>
    <vehicle id="465" depart="325.50">
        <route edges="17:16 16:3 3:5 5:7"/>
    </vehicle>
    <vehicle id="466" depart="326.20">
        <route edges="18:3 3:2 2:1 1:0 0:8 8:9"/>
    </vehicle>
    <vehicle id="467" depart="326.90">
        <route edges="19:18 18:3 3:2 2:1 1:0 0:8"/>
    </vehicle>
    <vehicle id="469" depart="328.30">
        <route edges="11:10 10:0 0:1 1:2"/>
    </vehicle>
    <vehicle id="472" depart="330.40">
        <route edges="13:12 12:1 1:0 0:10 10:11"/>
    </vehicle>
    <vehicle id="473" depart="331.10">
        <route edges="19:18 18:3 3:2 2:1 1:0 0:8"/>
    </vehicle>
    <vehicle id="474" depart="331.80">
        <route edges="15:14 14:2 2:3 3:5 5:7"/>
    </vehicle>
    <vehicle id="476" depart="333.20">
        <route edges="17:16 16:3 3:2 2:1 1:0 0:10 10:11"/>
    </vehicle>
    <vehicle id="478" depart="334.60">
        <route edges="13:12 12:1 1:2 2:3 3:16 16:17"/>
    </vehicle>
    <vehicle id="481" depart="336.70">
        <route edges="18:3 3:2 2:1 1:0 0:4 4:6"/>
    </vehicle>
    <vehicle id="482" depart="337.40">
        <route edges="13:12 12:1 1:2 2:3 3:16"/>
    </vehicle>
    <vehicle id="483" depart="338.10">
        <route edges="8:0 0:4 4:6"/>
    </vehicle>
    <vehicle id="484" depart="338.80">
        <route edges="11:10 10:0 0:4 4:6"/>
    </vehicle>
    <vehicle id="486" depart="340.20">
        <route edges="4:0 0:1"/>
    </vehicle>
    <vehicle id="487" depart="340.90">
        <route edges="2:3 3:5 5:7"/>
    </vehicle>
    <vehicle id="488" depart="341.60">
        <route edges="9:8 8:0 0:1 1:2 2:3 3:18 18:19"/>
    </vehicle>
    <vehicle id="489" depart="342.30">
        <route edges="7:5 5:3 3:16 16:17"/>
    </vehicle>
    <vehicle id="491" depart="343.70">
        <route edges="9:8 8:0 0:10"/>
    </vehicle>
    <vehicle id="495" depart="346.50">
        <route edges="17:16 16:3 3:2 2:14 14:15"/>
    </vehicle>
    <vehicle id="500" depart="350.00">
        <route edges="19:18 18:3 3:2 2:1 1:0 0:4 4:6"/>
    </vehicle>
    <vehicle id="503" depart="352.10">
        <route edges="6:4 4:0 0:1 1:12"/>
    </vehicle>
    <vehicle id="504" depart="352.80">
        <route edges="7:5 5:3 3:2 2:1 1:0"/>
    </vehicle>
    <vehicle id="505" depart="353.50">
        <route edges="17:16 16:3 3:2 2:1 1:12 12:13"/>
    </vehicle>
    <vehicle id="507" depart="354.90">
        <route edges="7:5 5:3 3:2 2:1"/>
    </vehicle>
    <vehicle id="509" depart="356.30">
        <route edges="1:2 2:3 3:18 18:19"/>
    </vehicle>
    <vehicle id="510" depart="357.00">
        <route edges="19:18 18:3 3:2 2:14 14:15"/>
    </vehicle>
    <vehicle id="511" depart="357.70">
        <route edges="17:16 16:3 3:5 5:7"/>
    </vehicle>
    <vehicle id="514" depart="359.80">
        <route edges="12:1 1:0 0:8"/>
    </vehicle>
    <vehicle id="516" depart="361.20">
        <route edges="18:3 3:2 2:1 1:0 0:4 4:6"/>
    </vehicle>
    <vehicle id="518" depart="362.60">
        <route edges="9:8 8:0 0:1 1:2 2:3 3:5 5:7"/>
    </vehicle>
    <vehicle id="520" depart="364.00">
        <route edges="11:10 10:0 0:4 4:6"/>
    </vehicle>
    <vehicle id="521" depart="364.70">
        <route edges="9:8 8:0 0:10"/>
    </vehicle>
    <vehicle id="522" depart="365.40">
        <route edges="3:5 5:7"/>
    </vehicle>
    <vehicle id="523" depart="366.10">
        <route edges="7:5 5:3 3:2 2:1 1:0 0:4 4:6"/>
    </vehicle>
    <vehicle id="525" depart="367.50">
        <route edges="7:5 5:3 3:18"/>
    </vehicle>
    <vehicle id="526" depart="368.20">
        <route edges="4:0 0:10 10:11"/>
    </vehicle>
    <vehicle id="527" depart="368.90">
        <route edges="19:18 18:3 3:2 2:1 1:0 0:8"/>
    </vehicle>
    <vehicle id="530" depart="371.00">
        <route edges="10:0 0:4 4:6"/>
    </vehicle>
    <vehicle id="533" depart="373.10">
        <route edges="11:10 10:0 0:1"/>
    </vehicle>
    <vehicle id="534" depart="373.80">
        <route edges="11:10 10:0 0:4 4:6"/>
    </vehicle>
    <vehicle id="535" depart="374.50">
        <route edges="18:3 3:2 2:1 1:0 0:10"/>
    </vehicle>
    <vehicle id="539" depart="377.30">
        <route edges="9:8 8:0 0:4 4:6"/>
    </vehicle>
    <vehicle id="540" depart="378.00">
        <route edges="6:4 4:0 0:1 1:12 12:13"/>
    </vehicle>
    <vehicle id="544" depart="380.80">
        <route edges="12:1 1:2 2:3 3:5 5:7"/>
    </vehicle>
    <vehicle id="547" depart="382.90">
        <route edges="0:4 4:6"/>
    </vehicle>
    <vehicle id="548" depart="383.60">
        <route edges="19:18 18:3 3:16 16:17"/>
    </vehicle>