<?xml version="1.0" encoding="UTF-8"?>

<!-- generated on Thu Oct 23 22:34:43 2014 by SUMO duarouter Version 0.18.0
<?xml version="1.0" encoding="UTF-8"?>

<configuration xmlns:xsi="http://www.w3.org/2001/XMLSchema-instance" xsi:noNamespaceSchemaLocation="http://sumo.sf.net/xsd/duarouterConfiguration.xsd">

    <input>
        <net-file value="corridor.net.xml"/>
        <trip-files value="experimentos/corridor.p0.7.10.trips.xml"/>
    </input>

    <output>
        <output-file value="experimentos/corridor.p0.7.10.rou.xml"/>
    </output>

    <processing>
        <ignore-errors value="true"/>
    </processing>

    <random_number>
        <random value="true"/>
    </random_number>

</configuration>
-->

<routes xmlns:xsi="http://www.w3.org/2001/XMLSchema-instance" xsi:noNamespaceSchemaLocation="http://sumo.sf.net/xsd/routes_file.xsd">
    <vehicle id="0" depart="0.00">
        <route edges="7:5 5:3 3:2 2:1 1:0"/>
    </vehicle>
    <vehicle id="2" depart="1.40">
        <route edges="1:0 0:4 4:6"/>
    </vehicle>
    <vehicle id="3" depart="2.10">
        <route edges="1:0 0:4"/>
    </vehicle>
    <vehicle id="4" depart="2.80">
        <route edges="4:0 0:1 1:2 2:3"/>
    </vehicle>
    <vehicle id="6" depart="4.20">
        <route edges="9:8 8:0"/>
    </vehicle>
    <vehicle id="7" depart="4.90">
        <route edges="6:4 4:0 0:1 1:12 12:13"/>
    </vehicle>
    <vehicle id="9" depart="6.30">
        <route edges="11:10 10:0 0:1 1:2"/>
    </vehicle>
    <vehicle id="11" depart="7.70">
        <route edges="7:5 5:3 3:2"/>
    </vehicle>
    <vehicle id="12" depart="8.40">
        <route edges="15:14 14:2 2:1 1:0 0:8 8:9"/>
    </vehicle>
    <vehicle id="14" depart="9.80">
        <route edges="19:18 18:3 3:2 2:14"/>
    </vehicle>
    <vehicle id="15" depart="10.50">
        <route edges="17:16 16:3 3:2 2:14 14:15"/>
    </vehicle>
    <vehicle id="16" depart="11.20">
        <route edges="2:3 3:16 16:17"/>
    </vehicle>
    <vehicle id="20" depart="14.00">
        <route edges="17:16 16:3 3:2 2:1"/>
    </vehicle>
    <vehicle id="22" depart="15.40">
        <route edges="7:5 5:3 3:2 2:1 1:0 0:4 4:6"/>
    </vehicle>
    <vehicle id="23" depart="16.10">
        <route edges="3:2 2:1"/>
    </vehicle>
    <vehicle id="28" depart="19.60">
        <route edges="5:3 3:2 2:1 1:0 0:4 4:6"/>
    </vehicle>
    <vehicle id="29" depart="20.30">
        <route edges="17:16 16:3 3:2 2:1 1:0 0:4 4:6"/>
    </vehicle>
    <vehicle id="30" depart="21.00">
        <route edges="7:5 5:3 3:2 2:1 1:0 0:10 10:11"/>
    </vehicle>
    <vehicle id="31" depart="21.70">
        <route edges="15:14 14:2 2:3 3:18 18:19"/>
    </vehicle>
    <vehicle id="33" depart="23.10">
        <route edges="11:10 10:0 0:1 1:2 2:3 3:18 18:19"/>
    </vehicle>
    <vehicle id="34" depart="23.80">
        <route edges="15:14 14:2 2:1 1:0 0:4"/>
    </vehicle>
    <vehicle id="35" depart="24.50">
        <route edges="13:12 12:1 1:2 2:3 3:18 18:19"/>
    </vehicle>
    <vehicle id="40" depart="28.00">
        <route edges="9:8 8:0 0:1 1:2 2:14 14:15"/>
    </vehicle>
    <vehicle id="44" depart="30.80">
        <route edges="17:16 16:3 3:2 2:1 1:12 12:13"/>
    </vehicle>
    <vehicle id="45" depart="31.50">
        <route edges="5:3 3:2 2:1 1:0 0:10 10:11"/>
    </vehicle>
    <vehicle id="46" depart="32.20">
        <route edges="15:14 14:2 2:1 1:0 0:10 10:11"/>
    </vehicle>
    <vehicle id="47" depart="32.90">
        <route edges="6:4 4:0 0:1 1:2"/>
    </vehicle>
    <vehicle id="49" depart="34.30">
        <route edges="0:8"/>
    </vehicle>
    <vehicle id="50" depart="35.00">
        <route edges="11:10 10:0 0:1 1:2 2:3 3:5"/>
    </vehicle>
    <vehicle id="52" depart="36.40">
        <route edges="11:10 10:0 0:8 8:9"/>
    </vehicle>
    <vehicle id="54" depart="37.80">
        <route edges="7:5 5:3 3:16 16:17"/>
    </vehicle>
    <vehicle id="55" depart="38.50">
        <route edges="13:12 12:1 1:2 2:3 3:5 5:7"/>
    </vehicle>
    <vehicle id="56" depart="39.20">
        <route edges="5:3 3:18"/>
    </vehicle>
    <vehicle id="60" depart="42.00">
        <route edges="6:4 4:0 0:1 1:2 2:3 3:16 16:17"/>
    </vehicle>
    <vehicle id="61" depart="42.70">
        <route edges="6:4 4:0 0:1 1:2 2:3 3:5 5:7"/>
    </vehicle>
    <vehicle id="62" depart="43.40">
        <route edges="19:18 18:3 3:2 2:1 1:12 12:13"/>
    </vehicle>
    <vehicle id="63" depart="44.10">
        <route edges="2:1 1:0"/>
    </vehicle>
    <vehicle id="64" depart="44.80">
        <route edges="17:16 16:3 3:18 18:19"/>
    </vehicle>
    <vehicle id="66" depart="46.20">
        <route edges="17:16 16:3 3:2 2:1 1:0 0:10 10:11"/>
    </vehicle>
    <vehicle id="67" depart="46.90">
        <route edges="11:10 10:0 0:1 1:2 2:3 3:5 5:7"/>
    </vehicle>
    <vehicle id="69" depart="48.30">
        <route edges="9:8 8:0 0:1 1:2 2:3 3:5 5:7"/>
    </vehicle>
    <vehicle id="70" depart="49.00">
        <route edges="7:5 5:3 3:2"/>
    </vehicle>
    <vehicle id="71" depart="49.70">
        <route edges="7:5 5:3 3:16 16:17"/>
    </vehicle>
    <vehicle id="73" depart="51.10">
        <route edges="6:4 4:0 0:1 1:2 2:3 3:5 5:7"/>
    </vehicle>
    <vehicle id="75" depart="52.50">
        <route edges="10:0 0:1 1:2 2:3 3:5 5:7"/>
    </vehicle>
    <vehicle id="80" depart="56.00">
        <route edges="19:18 18:3 3:2 2:1 1:0 0:8"/>
    </vehicle>
    <vehicle id="82" depart="57.40">
        <route edges="4:0 0:8 8:9"/>
    </vehicle>
    <vehicle id="87" depart="60.90">
        <route edges="17:16 16:3 3:2 2:1 1:0 0:8 8:9"/>
    </vehicle>
    <vehicle id="90" depart="63.00">
        <route edges="6:4 4:0 0:10 10:11"/>
    </vehicle>
    <vehicle id="91" depart="63.70">
        <route edges="1:0 0:4"/>
    </vehicle>
    <vehicle id="92" depart="64.40">
        <route edges="3:2 2:14 14:15"/>
    </vehicle>
    <vehicle id="93" depart="65.10">
        <route edges="1:0 0:4"/>
    </vehicle>
    <vehicle id="97" depart="67.90">
        <route edges="3:2 2:1"/>
    </vehicle>
    <vehicle id="102" depart="71.40">
        <route edges="5:3 3:2 2:1 1:0 0:8 8:9"/>
    </vehicle>
    <vehicle id="104" depart="72.80">
        <route edges="6:4 4:0 0:1 1:2 2:3 3:18 18:19"/>
    </vehicle>
    <vehicle id="105" depart="73.50">
        <route edges="15:14 14:2 2:3 3:18 18:19"/>
    </vehicle>
    <vehicle id="107" depart="74.90">
        <route edges="15:14 14:2 2:1 1:0 0:4 4:6"/>
    </vehicle>
    <vehicle id="111" depart="77.70">
        <route edges="4:0 0:1 1:2 2:3 3:5 5:7"/>
    </vehicle>
    <vehicle id="113" depart="79.10">
        <route edges="12:1 1:0 0:8"/>
    </vehicle>
    <vehicle id="114" depart="79.80">
        <route edges="9:8 8:0 0:10 10:11"/>
    </vehicle>
    <vehicle id="116" depart="81.20">
        <route edges="11:10 10:0 0:1 1:12 12:13"/>
    </vehicle>
    <vehicle id="119" depart="83.30">
        <route edges="11:10 10:0 0:1 1:2 2:3 3:18 18:19"/>
    </vehicle>
    <vehicle id="122" depart="85.40">
        <route edges="4:0 0:1 1:12 12:13"/>
    </vehicle>
    <vehicle id="124" depart="86.80">
        <route edges="7:5 5:3 3:2"/>
    </vehicle>
    <vehicle id="125" depart="87.50">
        <route edges="12:1 1:2 2:3 3:5 5:7"/>
    </vehicle>
    <vehicle id="126" depart="88.20">
        <route edges="6:4 4:0 0:1 1:2 2:14"/>
    </vehicle>
    <vehicle id="127" depart="88.90">
        <route edges="17:16 16:3 3:2 2:14 14:15"/>
    </vehicle>
    <vehicle id="128" depart="89.60">
        <route edges="7:5 5:3 3:2 2:1 1:12"/>
    </vehicle>
    <vehicle id="130" depart="91.00">
        <route edges="3:2 2:1 1:0 0:4"/>
    </vehicle>
    <vehicle id="132" depart="92.40">
        <route edges="19:18 18:3 3:16 16:17"/>
    </vehicle>
    <vehicle id="133" depart="93.10">
        <route edges="14:2 2:3 3:18 18:19"/>
    </vehicle>
    <vehicle id="134" depart="93.80">
        <route edges="9:8 8:0"/>
    </vehicle>
    <vehicle id="137" depart="95.90">
        <route edges="18:3 3:2 2:1 1:0 0:10"/>
    </vehicle>
    <vehicle id="138" depart="96.60">
        <route edges="7:5 5:3 3:2 2:1 1:0 0:10 10:11"/>
    </vehicle>
    <vehicle id="140" depart="98.00">
        <route edges="17:16 16:3 3:2 2:1 1:0 0:4"/>
    </vehicle>
    <vehicle id="141" depart="98.70">
        <route edges="16:3 3:2 2:1 1:0 0:4 4:6"/>
    </vehicle>
    <vehicle id="142" depart="99.40">
        <route edges="17:16 16:3 3:2 2:1 1:0 0:10"/>
    </vehicle>
    <vehicle id="143" depart="100.10">
        <route edges="13:12 12:1 1:2 2:3 3:5 5:7"/>
    </vehicle>
    <vehicle id="145" depart="101.50">
        <route edges="19:18 18:3 3:2 2:1 1:0 0:4 4:6"/>
    </vehicle>
    <vehicle id="147" depart="102.90">
        <route edges="13:12 12:1 1:0 0:10 10:11"/>
    </vehicle>
    <vehicle id="148" depart="103.60">
        <route edges="13:12 12:1 1:0"/>
    </vehicle>
    <vehicle id="149" depart="104.30">
        <route edges="1:0 0:8 8:9"/>
    </vehicle>
    <vehicle id="151" depart="105.70">
        <route edges="16:3 3:2 2:1 1:0 0:8"/>
    </vehicle>
    <vehicle id="152" depart="106.40">
        <route edges="10:0 0:4 4:6"/>
    </vehicle>
    <vehicle id="153" depart="107.10">
        <route edges="16:3 3:5 5:7"/>
    </vehicle>
    <vehicle id="154" depart="107.80">
        <route edges="4:0 0:1 1:2 2:14 14:15"/>
    </vehicle>
    <vehicle id="158" depart="110.60">
        <route edges="7:5 5:3 3:2"/>
    </vehicle>
    <vehicle id="159" depart="111.30">
        <route edges="7:5 5:3 3:2 2:1 1:0 0:4 4:6"/>
    </vehicle>
    <vehicle id="160" depart="112.00">
        <route edges="0:1 1:2 2:14 14:15"/>
    </vehicle>
    <vehicle id="161" depart="112.70">
        <route edges="4:0 0:1"/>
    </vehicle>
    <vehicle id="162" depart="113.40">
        <route edges="9:8 8:0 0:1 1:2 2:3 3:16"/>
    </vehicle>
    <vehicle id="164" depart="114.80">
        <route edges="12:1 1:2 2:3 3:5 5:7"/>
    </vehicle>
    <vehicle id="166" depart="116.20">
        <route edges="6:4 4:0 0:1 1:2 2:14 14:15"/>
    </vehicle>
    <vehicle id="167" depart="116.90">
        <route edges="4:0 0:1 1:2 2:3 3:18 18:19"/>
    </vehicle>
    <vehicle id="169" depart="118.30">
        <route edges="5:3 3:2 2:14 14:15"/>
    </vehicle>
    <vehicle id="172" depart="120.40">
        <route edges="2:3 3:5 5:7"/>
    </vehicle>
    <vehicle id="174" depart="121.80">
        <route edges="11:10 10:0 0:1 1:2 2:14 14:15"/>
    </vehicle>
    <vehicle id="175" depart="122.50">
        <route edges="14:2 2:1 1:0 0:4 4:6"/>
    </vehicle>
    <vehicle id="177" depart="123.90">
        <route edges="11:10 10:0"/>
    </vehicle>
    <vehicle id="178" depart="124.60">
        <route edges="19:18 18:3 3:2 2:1 1:0 0:8 8:9"/>
    </vehicle>
    <vehicle id="179" depart="125.30">
        <route edges="11:10 10:0 0:4"/>
    </vehicle>
    <vehicle id="180" depart="126.00">
        <route edges="5:3 3:16"/>
    </vehicle>
    <vehicle id="181" depart="126.70">
        <route edges="11:10 10:0"/>
    </vehicle>
    <vehicle id="184" depart="128.80">
        <route edges="13:12 12:1 1:2 2:14 14:15"/>
    </vehicle>
    <vehicle id="185" depart="129.50">
        <route edges="14:2 2:1 1:12 12:13"/>
    </vehicle>
    <vehicle id="186" depart="130.20">
        <route edges="19:18 18:3 3:2 2:1 1:12 12:13"/>
    </vehicle>
    <vehicle id="190" depart="133.00">
        <route edges="1:2 2:14 14:15"/>
    </vehicle>
    <vehicle id="191" depart="133.70">
        <route edges="5:3 3:2 2:1 1:0 0:8"/>
    </vehicle>
    <vehicle id="193" depart="135.10">
        <route edges="16:3 3:2 2:14"/>
    </vehicle>
    <vehicle id="194" depart="135.80">
        <route edges="6:4 4:0 0:1 1:2 2:3 3:18 18:19"/>
    </vehicle>
    <vehicle id="196" depart="137.20">
        <route edges="17:16 16:3 3:2 2:1"/>
    </vehicle>
    <vehicle id="197" depart="137.90">
        <route edges="8:0 0:1 1:12"/>
    </vehicle>
    <vehicle id="198" depart="138.60">
        <route edges="9:8 8:0 0:4 4:6"/>
    </vehicle>
    <vehicle id="199" depart="139.30">
        <route edges="7:5 5:3 3:2 2:1 1:0"/>
    </vehicle>
    <vehicle id="201" depart="140.70">
        <route edges="6:4 4:0 0:1 1:2 2:14 14:15"/>
    </vehicle>
    <vehicle id="202" depart="141.40">
        <route edges="2:1 1:0 0:10 10:11"/>
    </vehicle>
    <vehicle id="203" depart="142.10">
        <route edges="7:5 5:3 3:18 18:19"/>
    </vehicle>
    <vehicle id="205" depart="143.50">
        <route edges="11:10 10:0 0:1 1:2"/>
    </vehicle>
    <vehicle id="207" depart="144.90">
        <route edges="5:3 3:2 2:14 14:15"/>
    </vehicle>
    <vehicle id="208" depart="145.60">
        <route edges="13:12 12:1 1:2 2:3 3:5 5:7"/>
    </vehicle>
    <vehicle id="215" depart="150.50">
        <route edges="15:14 14:2 2:3 3:16 16:17"/>
    </vehicle>
    <vehicle id="220" depart="154.00">
        <route edges="19:18 18:3 3:2 2:1 1:0 0:4 4:6"/>
    </vehicle>
    <vehicle id="221" depart="154.70">
        <route edges="4:0 0:8 8:9"/>
    </vehicle>
    <vehicle id="222" depart="155.40">
        <route edges="6:4 4:0 0:1 1:2"/>
    </vehicle>
    <vehicle id="223" depart="156.10">
        <route edges="16:3 3:2 2:1 1:0 0:4"/>
    </vehicle>
    <vehicle id="224" depart="156.80">
        <route edges="6:4 4:0 0:1 1:2 2:3"/>
    </vehicle>
    <vehicle id="227" depart="158.90">
        <route edges="19:18 18:3 3:2 2:1 1:0 0:10 10:11"/>
    </vehicle>
    <vehicle id="228" depart="159.60">
        <route edges="11:10 10:0 0:8 8:9"/>
    </vehicle>
    <vehicle id="229" depart="160.30">
        <route edges="13:12 12:1 1:0 0:4 4:6"/>
    </vehicle>
    <vehicle id="232" depart="162.40">
        <route edges="15:14 14:2 2:3 3:16 16:17"/>
    </vehicle>
    <vehicle id="234" depart="163.80">
        <route edges="5:3 3:2"/>
    </vehicle>
    <vehicle id="235" depart="164.50">
        <route edges="5:3 3:2 2:1 1:0 0:10 10:11"/>
    </vehicle>
    <vehicle id="237" depart="165.90">
        <route edges="5:3 3:2 2:1 1:12 12:13"/>
    </vehicle>
    <vehicle id="240" depart="168.00">
        <route edges="6:4 4:0 0:10 10:11"/>
    </vehicle>
    <vehicle id="241" depart="168.70">
        <route edges="3:2 2:1 1:0 0:4"/>
    </vehicle>
    <vehicle id="242" depart="169.40">
        <route edges="15:14 14:2 2:3 3:5 5:7"/>
    </vehicle>
    <vehicle id="243" depart="170.10">
        <route edges="7:5 5:3 3:2 2:14 14:15"/>
    </vehicle>
    <vehicle id="244" depart="170.80">
        <route edges="13:12 12:1 1:2 2:3 3:16"/>
    </vehicle>
    <vehicle id="245" depart="171.50">
        <route edges="11:10 10:0 0:1 1:2 2:14 14:15"/>
    </vehicle>
    <vehicle id="251" depart="175.70">
        <route edges="1:2"/>
    </vehicle>
    <vehicle id="255" depart="178.50">
        <route edges="13:12 12:1 1:0 0:4"/>
    </vehicle>
    <vehicle id="256" depart="179.20">
        <route edges="17:16 16:3 3:2"/>
    </vehicle>
    <vehicle id="257" depart="179.90">
        <route edges="13:12 12:1 1:2 2:3"/>
    </vehicle>
    <vehicle id="258" depart="180.60">
        <route edges="0:1 1:2"/>
    </vehicle>
    <vehicle id="265" depart="185.50">
        <route edges="10:0 0:8 8:9"/>
    </vehicle>
    <vehicle id="267" depart="186.90">
        <route edges="6:4 4:0 0:1 1:2 2:3 3:16 16:17"/>
    </vehicle>
    <vehicle id="270" depart="189.00">
        <route edges="16:3 3:2 2:1"/>
    </vehicle>
    <vehicle id="271" depart="189.70">
        <route edges="13:12 12:1 1:2 2:3 3:5"/>
    </vehicle>
    <vehicle id="272" depart="190.40">
        <route edges="11:10 10:0 0:1"/>
    </vehicle>
    <vehicle id="274" depart="191.80">
        <route edges="9:8 8:0 0:4 4:6"/>
    </vehicle>
    <vehicle id="276" depart="193.20">
        <route edges="13:12 12:1 1:0 0:8"/>
    </vehicle>
    <vehicle id="278" depart="194.60">
        <route edges="15:14 14:2 2:1 1:0 0:4"/>
    </vehicle>
    <vehicle id="279" depart="195.30">
        <route edges="15:14 14:2 2:1 1:0 0:4 4:6"/>
    </vehicle>
    <vehicle id="281" depart="196.70">
        <route edges="14:2"/>
    </vehicle>
    <vehicle id="282" depart="197.40">
        <route edges="12:1 1:0 0:4 4:6"/>
    </vehicle>
    <vehicle id="285" depart="199.50">
        <route edges="19:18 18:3 3:5 5:7"/>
    </vehicle>
    <vehicle id="287" depart="200.90">
        <route edges="11:10 10:0 0:1 1:2 2:14"/>
    </vehicle>
    <vehicle id="289" depart="202.30">
        <route edges="9:8 8:0 0:10 10:11"/>
    </vehicle>
    <vehicle id="290" depart="203.00">
        <route edges="7:5 5:3 3:2 2:14 14:15"/>
    </vehicle>
    <vehicle id="291" depart="203.70">
        <route edges="6:4 4:0 0:10 10:11"/>
    </vehicle>
    <vehicle id="292" depart="204.40">
        <route edges="15:14 14:2 2:3 3:5 5:7"/>
    </vehicle>
    <vehicle id="294" depart="205.80">
        <route edges="15:14 14:2 2:1 1:0 0:4 4:6"/>
    </vehicle>
    <vehicle id="298" depart="208.60">
        <route edges="6:4 4:0 0:1 1:2 2:3 3:5 5:7"/>
    </vehicle>
    <vehicle id="299" depart="209.30">
        <route edges="7:5 5:3 3:2 2:1 1:0 0:4 4:6"/>
    </vehicle>
    <vehicle id="300" depart="210.00">
        <route edges="10:0 0:1 1:2 2:14 14:15"/>
    </vehicle>
    <vehicle id="303" depart="212.10">
        <route edges="5:3 3:18 18:19"/>
    </vehicle>
    <vehicle id="304" depart="212.80">
        <route edges="17:16 16:3 3:5 5:7"/>
    </vehicle>
    <vehicle id="305" depart="213.50">
        <route edges="6:4 4:0 0:1 1:2 2:3 3:16 16:17"/>
    </vehicle>
    <vehicle id="310" depart="217.00">
        <route edges="0:10 10:11"/>
    </vehicle>
    <vehicle id="312" depart="218.40">
        <route edges="12:1 1:2"/>
    </vehicle>
    <vehicle id="314" depart="219.80">
        <route edges="1:0 0:8"/>
    </vehicle>
    <vehicle id="315" depart="220.50">
        <route edges="6:4 4:0 0:10"/>
    </vehicle>
    <vehicle id="318" depart="222.60">
        <route edges="6:4 4:0 0:1 1:2 2:3 3:16 16:17"/>
    </vehicle>
    <vehicle id="320" depart="224.00">
        <route edges="0:1 1:2 2:3 3:5"/>
    </vehicle>
    <vehicle id="321" depart="224.70">
        <route edges="17:16 16:3 3:18"/>
    </vehicle>
    <vehicle id="323" depart="226.10">
        <route edges="19:18 18:3 3:2"/>
    </vehicle>
    <vehicle id="326" depart="228.20">
        <route edges="12:1 1:2 2:3 3:5"/>
    </vehicle>
    <vehicle id="327" depart="228.90">
        <route edges="17:16 16:3 3:2 2:1 1:0 0:4 4:6"/>
    </vehicle>
    <vehicle id="328" depart="229.60">
        <route edges="9:8 8:0 0:1 1:2 2:14"/>
    </vehicle>
    <vehicle id="329" depart="230.30">
        <route edges="9:8 8:0 0:1 1:2 2:3 3:18 18:19"/>
    </vehicle>
    <vehicle id="330" depart="231.00">
        <route edges="6:4 4:0 0:1 1:2 2:3 3:18 18:19"/>
    </vehicle>
    <vehicle id="331" depart="231.70">
        <route edges="7:5 5:3 3:2 2:1 1:0 0:4 4:6"/>
    </vehicle>
    <vehicle id="335" depart="234.50">
        <route edges="2:1 1:12 12:13"/>
    </vehicle>
    <vehicle id="338" depart="236.60">
        <route edges="6:4 4:0 0:1 1:2 2:14 14:15"/>
    </vehicle>
    <vehicle id="339" depart="237.30">
        <route edges="9:8 8:0 0:1 1:2 2:3 3:16 16:17"/>
    </vehicle>
    <vehicle id="340" depart="238.00">
        <route edges="7:5 5:3 3:18 18:19"/>
    </vehicle>
    <vehicle id="341" depart="238.70">
        <route edges="9:8 8:0 0:1 1:2 2:3 3:5 5:7"/>
    </vehicle>
    <vehicle id="343" depart="240.10">
        <route edges="11:10 10:0 0:1 1:2 2:3 3:16 16:17"/>
    </vehicle>
    <vehicle id="344" depart="240.80">
        <route edges="17:16 16:3 3:5 5:7"/>
    </vehicle>
    <vehicle id="350" depart="245.00">
        <route edges="13:12 12:1 1:0 0:4"/>
    </vehicle>
    <vehicle id="352" depart="246.40">
        <route edges="3:5 5:7"/>
    </vehicle>
    <vehicle id="354" depart="247.80">
        <route edges="3:2 2:1 1:0"/>
    </vehicle>
    <vehicle id="355" depart="248.50">
        <route edges="4:0 0:1 1:2 2:3 3:18 18:19"/>
    </vehicle>
    <vehicle id="358" depart="250.60">
        <route edges="6:4 4:0 0:1"/>
    </vehicle>
    <vehicle id="359" depart="251.30">
        <route edges="1:2 2:3 3:5"/>
    </vehicle>
    <vehicle id="362" depart="253.40">
        <route edges="9:8 8:0 0:10"/>
    </vehicle>
    <vehicle id="366" depart="256.20">
        <route edges="5:3 3:16 16:17"/>
    </vehicle>
    <vehicle id="367" depart="256.90">
        <route edges="4:0"/>
    </vehicle>
    <vehicle id="370" depart="259.00">
        <route edges="12:1 1:2 2:3 3:18"/>
    </vehicle>
    <vehicle id="371" depart="259.70">
        <route edges="19:18 18:3 3:5 5:7"/>
    </vehicle>
    <vehicle id="374" depart="261.80">
        <route edges="17:16 16:3 3:2 2:1 1:12 12:13"/>
    </vehicle>
    <vehicle id="376" depart="263.20">
        <route edges="17:16 16:3 3:2 2:1"/>
    </vehicle>
    <vehicle id="381" depart="266.70">
        <route edges="3:2 2:1 1:0 0:8"/>
    </vehicle>
    <vehicle id="382" depart="267.40">
        <route edges="12:1 1:0 0:4"/>
    </vehicle>
    <vehicle id="384" depart="268.80">
        <route edges="11:10 10:0 0:1 1:12 12:13"/>
    </vehicle>
    <vehicle id="385" depart="269.50">
        <route edges="19:18 18:3 3:5"/>
    </vehicle>
    <vehicle id="391" depart="273.70">
        <route edges="11:10 10:0 0:1 1:2 2:14 14:15"/>
    </vehicle>
    <vehicle id="403" depart="282.10">
        <route edges="7:5 5:3 3:2 2:1 1:12"/>
    </vehicle>
    <vehicle id="405" depart="283.50">
        <route edges="7:5 5:3 3:2 2:1 1:12 12:13"/>
    </vehicle>
    <vehicle id="406" depart="284.20">
        <route edges="5:3 3:2"/>
    </vehicle>
    <vehicle id="411" depart="287.70">
        <route edges="19:18 18:3"/>
    </vehicle>
    <vehicle id="413" depart="289.10">
        <route edges="9:8 8:0 0:4"/>
    </vehicle>
    <vehicle id="416" depart="291.20">
        <route edges="4:0 0:1 1:2 2:3"/>
    </vehicle>
    <vehicle id="418" depart="292.60">
        <route edges="7:5 5:3 3:2 2:1 1:0 0:8 8:9"/>
    </vehicle>
    <vehicle id="419" depart="293.30">
        <route edges="1:0 0:8 8:9"/>
    </vehicle>
    <vehicle id="422" depart="295.40">
        <route edges="7:5 5:3 3:2 2:1 1:0 0:8 8:9"/>
    </vehicle>
    <vehicle id="425" depart="297.50">
        <route edges="0:1 1:2 2:3 3:5 5:7"/>
    </vehicle>
    <vehicle id="426" depart="298.20">
        <route edges="4:0 0:1 1:2 2:3 3:16 16:17"/>
    </vehicle>
    <vehicle id="427" depart="298.90">
        <route edges="5:3 3:2 2:14"/>
    </vehicle>
    <vehicle id="428" depart="299.60">
        <route edges="13:12 12:1 1:0 0:10 10:11"/>
    </vehicle>
    <vehicle id="429" depart="300.30">
        <route edges="17:16 16:3 3:2"/>
    </vehicle>
    <vehicle id="432" depart="302.40">
        <route edges="1:0 0:10 10:11"/>
    </vehicle>
    <vehicle id="434" depart="303.80">
        <route edges="1:0 0:8 8:9"/>
    </vehicle>
    <vehicle id="435" depart="304.50">
        <route edges="9:8 8:0 0:1 1:2 2:3"/>
    </vehicle>
    <vehicle id="438" depart="306.60">
        <route edges="2:1"/>
    </vehicle>
    <vehicle id="439" depart="307.30">
        <route edges="17:16 16:3 3:2 2:1 1:0 0:4 4:6"/>
    </vehicle>
    <vehicle id="441" depart="308.70">
        <route edges="9:8 8:0 0:1 1:2 2:3 3:18"/>
    </vehicle>
    <vehicle id="442" depart="309.40">
        <route edges="9:8 8:0 0:1 1:12 12:13"/>
    </vehicle>
    <vehicle id="444" depart="310.80">
        <route edges="4:0 0:1 1:12 12:13"/>
    </vehicle>
    <vehicle id="450" depart="315.00">
        <route edges="13:12 12:1 1:2 2:3 3:16 16:17"/>
    </vehicle>
    <vehicle id="451" depart="315.70">
        <route edges="13:12 12:1 1:2 2:3 3:18 18:19"/>
    </vehicle>
    <vehicle id="453" depart="317.10">
        <route edges="7:5 5:3 3:2 2:1 1:0 0:4 4:6"/>
    </vehicle>
    <vehicle id="455" depart="318.50">
        <route edges="19:18 18:3 3:2 2:1 1:0 0:8 8:9"/>
    </vehicle>
    <vehicle id="461" depart="322.70">
        <route edges="2:1 1:0 0:10 10:11"/>
    </vehicle>
    <vehicle id="462" depart="323.40">
        <route edges="1:0 0:4 4:6"/>
    </vehicle>
    <vehicle id="463" depart="324.10">
        <route edges="6:4 4:0 0:1 1:2 2:14 14:15"/>
    </vehicle>
    <vehicle id="464" depart="324.80">
        <route edges="1:0 0:4 4:6"/>
    </vehicle>
    <vehicle id="466" depart="326.20">
        <route edges="19:18 18:3 3:2 2:1 1:0 0:4 4:6"/>
    </vehicle>
    <vehicle id="468" depart="327.60">
        <route edges="5:3 3:18 18:19"/>
    </vehicle>
    <vehicle id="469" depart="328.30">
        <route edges="5:3 3:2 2:1"/>
    </vehicle>
    <vehicle id="472" depart="330.40">
        <route edges="17:16 16:3 3:2 2:1 1:0 0:4 4:6"/>
    </vehicle>
    <vehicle id="473" depart="331.10">
        <route edges="7:5 5:3"/>
    </vehicle>
    <vehicle id="475" depart="332.50">
        <route edges="11:10 10:0 0:1 1:2 2:3"/>
    </vehicle>
    <vehicle id="476" depart="333.20">
        <route edges="17:16 16:3 3:2 2:1 1:0 0:4"/>
    </vehicle>
    <vehicle id="478" depart="334.60">
        <route edges="16:3 3:2 2:1 1:12"/>
    </vehicle>
    <vehicle id="479" depart="335.30">
        <route edges="14:2 2:1 1:0 0:10 10:11"/>
    </vehicle>
    <vehicle id="484" depart="338.80">
        <route edges="10:0 0:1 1:12 12:13"/>
    </vehicle>
    <vehicle id="486" depart="340.20">
        <route edges="7:5 5:3 3:2 2:1 1:0 0:4 4:6"/>
    </vehicle>
    <vehicle id="487" depart="340.90">
        <route edges="15:14 14:2 2:3 3:18 18:19"/>
    </vehicle>
    <vehicle id="488" depart="341.60">
        <route edges="2:3 3:5"/>
    </vehicle>
    <vehicle id="490" depart="343.00">
        <route edges="1:2"/>
    </vehicle>
    <vehicle id="491" depart="343.70">
        <route edges="9:8 8:0 0:1 1:2 2:3 3:5 5:7"/>
    </vehicle>
    <vehicle id="492" depart="344.40">
        <route edges="17:16 16:3 3:2 2:1 1:0 0:4 4:6"/>
    </vehicle>
    <vehicle id="493" depart="345.10">
        <route edges="19:18 18:3 3:2 2:1 1:0 0:4 4:6"/>
    </vehicle>
    <vehicle id="494" depart="345.80">
        <route edges="8:0 0:1 1:2 2:3 3:16 16:17"/>
    </vehicle>
    <vehicle id="497" depart="347.90">
        <route edges="2:3 3:18 18:19"/>
    </vehicle>
    <vehicle id="498" depart="348.60">
        <route edges="13:12 12:1 1:0 0:10 10:11"/>
    </vehicle>
    <vehicle id="499" depart="349.30">
        <route edges="5:3 3:2 2:1 1:0 0:4 4:6"/>
    </vehicle>
    <vehicle id="502" depart="351.40">
        <route edges="17:16 16:3 3:2 2:1 1:12 12:13"/>
    </vehicle>
    <vehicle id="503" depart="352.10">
        <route edges="11:10 10:0 0:1 1:2 2:14 14:15"/>
    </vehicle>
    <vehicle id="505" depart="353.50">
        <route edges="7:5 5:3 3:2 2:1"/>
    </vehicle>
    <vehicle id="508" depart="355.60">
        <route edges="6:4 4:0 0:1 1:2 2:14"/>
    </vehicle>
    <vehicle id="509" depart="356.30">
        <route edges="6:4 4:0"/>
    </vehicle>
    <vehicle id="510" depart="357.00">
        <route edges="6:4 4:0 0:1 1:2 2:3 3:5 5:7"/>
    </vehicle>
    <vehicle id="511" depart="357.70">
        <route edges="7:5 5:3 3:2 2:1 1:0 0:8"/>
    </vehicle>
    <vehicle id="512" depart="358.40">
        <route edges="14:2 2:1 1:0 0:10 10:11"/>
    </vehicle>
    <vehicle id="514" depart="359.80">
        <route edges="15:14 14:2 2:1 1:0 0:4 4:6"/>
    </vehicle>
    <vehicle id="517" depart="361.90">
        <route edges="0:1 1:2 2:3 3:18"/>
    </vehicle>
    <vehicle id="518" depart="362.60">
        <route edges="7:5 5:3 3:2"/>
    </vehicle>
    <vehicle id="519" depart="363.30">
        <route edges="15:14 14:2 2:1 1:0 0:4 4:6"/>
    </vehicle>
    <vehicle id="520" depart="364.00">
        <route edges="10:0 0:1 1:2 2:3 3:5 5:7"/>
    </vehicle>
    <vehicle id="522" depart="365.40">
        <route edges="13:12 12:1 1:2"/>
    </vehicle>
    <vehicle id="526" depart="368.20">
        <route edges="7:5 5:3 3:2 2:1 1:12 12:13"/>
    </vehicle>
    <vehicle id="527" depart="368.90">
        <route edges="7:5 5:3 3:2 2:1 1:0 0:10 10:11"/>
    </vehicle>
    <vehicle id="531" depart="371.70">
        <route edges="9:8 8:0 0:1 1:2 2:3 3:5 5:7"/>
    </vehicle>
    <vehicle id="532" depart="372.40">
        <route edges="6:4 4:0 0:10 10:11"/>
    </vehicle>
    <vehicle id="534" depart="373.80">
        <route edges="15:14 14:2 2:1 1:0 0:8 8:9"/>
    </vehicle>
    <vehicle id="538" depart="376.60">
        <route edges="17:16 16:3 3:2 2:1 1:0 0:10 10:11"/>
    </vehicle>
    <vehicle id="541" depart="378.70">
        <route edges="7:5 5:3 3:16 16:17"/>
    </vehicle>
    <vehicle id="542" depart="379.40">
        <route edges="13:12 12:1 1:2 2:14 14:15"/>
    </vehicle>
    <vehicle id="543" depart="380.10">
        <route edges="12:1 1:2 2:3"/>
    </vehicle>
    <vehicle id="544" depart="380.80">
        <route edges="2:1 1:0 0:4 4:6"/>
    </vehicle>
    <vehicle id="545" depart="381.50">
        <route edges="15:14 14:2 2:3"/>
    </vehicle>
    <vehicle id="546" depart="382.20">
        <route edges="15:14 14:2 2:3 3:16 16:17"/>
    </vehicle>
    <vehicle id="549" depart="384.30">
        <route edges="13:12 12:1 1:0 0:10"/>
    </vehicle>
    <vehicle id="551" depart="385.70">
        <route edges="6:4 4:0 0:1 1:2 2:3 3:16 16:17"/>
    </vehicle>
    <vehicle id="552" depart="386.40">
        <route edges="6:4 4:0 0:1 1:2 2:14"/>
    </vehicle>
    <vehicle id="555" depart="388.50">
        <route edges="11:10 10:0 0:1 1:2 2:3 3:5 5:7"/>
    </vehicle>
    <vehicle id="556" depart="389.20">
        <route edges="2:1 1:0 0:4 4:6"/>
    </vehicle>
    <vehicle id="557" depart="389.90">
        <route edges="6:4 4:0 0:8 8:9"/>
    </vehicle>
    <vehicle id="560" depart="392.00">
        <route edges="6:4 4:0 0:1 1:2 2:3 3:5 5:7"/>
    </vehicle>
    <vehicle id="561" depart="392.70">
        <route edges="11:10 10:0 0:1 1:2 2:3 3:5"/>
    </vehicle>
    <vehicle id="563" depart="394.10">
        <route edges="7:5 5:3"/>
    </vehicle>
    <vehicle id="564" depart="394.80">