<?xml version="1.0" encoding="UTF-8"?>

<!-- generated on Thu Oct 23 22:34:34 2014 by SUMO duarouter Version 0.18.0
<?xml version="1.0" encoding="UTF-8"?>

<configuration xmlns:xsi="http://www.w3.org/2001/XMLSchema-instance" xsi:noNamespaceSchemaLocation="http://sumo.sf.net/xsd/duarouterConfiguration.xsd">

    <input>
        <net-file value="corridor.net.xml"/>
        <trip-files value="experimentos/corridor.p0.7.4.trips.xml"/>
    </input>

    <output>
        <output-file value="experimentos/corridor.p0.7.4.rou.xml"/>
    </output>

    <processing>
        <ignore-errors value="true"/>
    </processing>

    <random_number>
        <random value="true"/>
    </random_number>

</configuration>
-->

<routes xmlns:xsi="http://www.w3.org/2001/XMLSchema-instance" xsi:noNamespaceSchemaLocation="http://sumo.sf.net/xsd/routes_file.xsd">
    <vehicle id="0" depart="0.00">
        <route edges="15:14 14:2 2:1 1:0 0:10 10:11"/>
    </vehicle>
    <vehicle id="1" depart="0.70">
        <route edges="0:4 4:6"/>
    </vehicle>
    <vehicle id="5" depart="3.50">
        <route edges="6:4 4:0 0:10"/>
    </vehicle>
    <vehicle id="6" depart="4.20">
        <route edges="6:4 4:0 0:1 1:2 2:3 3:5 5:7"/>
    </vehicle>
    <vehicle id="10" depart="7.00">
        <route edges="7:5 5:3 3:2 2:1 1:0"/>
    </vehicle>
    <vehicle id="11" depart="7.70">
        <route edges="2:1 1:0 0:8 8:9"/>
    </vehicle>
    <vehicle id="12" depart="8.40">
        <route edges="17:16 16:3 3:2 2:1 1:0 0:10 10:11"/>
    </vehicle>
    <vehicle id="13" depart="9.10">
        <route edges="14:2 2:3"/>
    </vehicle>
    <vehicle id="15" depart="10.50">
        <route edges="14:2 2:1 1:0 0:4 4:6"/>
    </vehicle>
    <vehicle id="16" depart="11.20">
        <route edges="13:12 12:1 1:2 2:3 3:18 18:19"/>
    </vehicle>
    <vehicle id="17" depart="11.90">
        <route edges="12:1 1:2 2:3 3:18"/>
    </vehicle>
    <vehicle id="18" depart="12.60">
        <route edges="2:3"/>
    </vehicle>
    <vehicle id="19" depart="13.30">
        <route edges="6:4 4:0 0:1 1:12"/>
    </vehicle>
    <vehicle id="20" depart="14.00">
        <route edges="9:8 8:0 0:1 1:12 12:13"/>
    </vehicle>
    <vehicle id="22" depart="15.40">
        <route edges="17:16 16:3 3:5"/>
    </vehicle>
    <vehicle id="23" depart="16.10">
        <route edges="13:12 12:1 1:0 0:10 10:11"/>
    </vehicle>
    <vehicle id="24" depart="16.80">
        <route edges="5:3 3:2 2:1 1:0 0:4"/>
    </vehicle>
    <vehicle id="25" depart="17.50">
        <route edges="6:4 4:0 0:1 1:12 12:13"/>
    </vehicle>
    <vehicle id="26" depart="18.20">
        <route edges="3:2 2:14 14:15"/>
    </vehicle>
    <vehicle id="27" depart="18.90">
        <route edges="19:18 18:3 3:2 2:1 1:0"/>
    </vehicle>
    <vehicle id="28" depart="19.60">
        <route edges="3:18 18:19"/>
    </vehicle>
    <vehicle id="29" depart="20.30">
        <route edges="12:1 1:2 2:3"/>
    </vehicle>
    <vehicle id="30" depart="21.00">
        <route edges="0:8 8:9"/>
    </vehicle>
    <vehicle id="33" depart="23.10">
        <route edges="9:8 8:0 0:10 10:11"/>
    </vehicle>
    <vehicle id="34" depart="23.80">
        <route edges="7:5 5:3 3:16 16:17"/>
    </vehicle>
    <vehicle id="35" depart="24.50">
        <route edges="4:0 0:8"/>
    </vehicle>
    <vehicle id="37" depart="25.90">
        <route edges="5:3 3:2 2:1 1:12"/>
    </vehicle>
    <vehicle id="38" depart="26.60">
        <route edges="3:5 5:7"/>
    </vehicle>
    <vehicle id="39" depart="27.30">
        <route edges="5:3"/>
    </vehicle>
    <vehicle id="40" depart="28.00">
        <route edges="7:5 5:3 3:2 2:1 1:0 0:4 4:6"/>
    </vehicle>
    <vehicle id="42" depart="29.40">
        <route edges="9:8 8:0 0:10 10:11"/>
    </vehicle>
    <vehicle id="45" depart="31.50">
        <route edges="2:3 3:5 5:7"/>
    </vehicle>
    <vehicle id="47" depart="32.90">
        <route edges="11:10 10:0 0:8"/>
    </vehicle>
    <vehicle id="48" depart="33.60">
        <route edges="6:4 4:0 0:1 1:2 2:3 3:5"/>
    </vehicle>
    <vehicle id="51" depart="35.70">
        <route edges="7:5 5:3 3:2 2:1 1:0 0:4 4:6"/>
    </vehicle>
    <vehicle id="52" depart="36.40">
        <route edges="15:14 14:2 2:3 3:5 5:7"/>
    </vehicle>
    <vehicle id="53" depart="37.10">
        <route edges="19:18 18:3 3:2"/>
    </vehicle>
    <vehicle id="54" depart="37.80">
        <route edges="6:4 4:0 0:1 1:12 12:13"/>
    </vehicle>
    <vehicle id="57" depart="39.90">
        <route edges="11:10 10:0 0:1 1:12 12:13"/>
    </vehicle>
    <vehicle id="58" depart="40.60">
        <route edges="1:0 0:4"/>
    </vehicle>
    <vehicle id="59" depart="41.30">
        <route edges="7:5 5:3 3:18 18:19"/>
    </vehicle>
    <vehicle id="60" depart="42.00">
        <route edges="7:5 5:3 3:18"/>
    </vehicle>
    <vehicle id="63" depart="44.10">
        <route edges="13:12 12:1 1:2 2:3 3:18 18:19"/>
    </vehicle>
    <vehicle id="65" depart="45.50">
        <route edges="3:2 2:1 1:0 0:4 4:6"/>
    </vehicle>
    <vehicle id="66" depart="46.20">
        <route edges="7:5 5:3 3:16"/>
    </vehicle>
    <vehicle id="68" depart="47.60">
        <route edges="11:10 10:0 0:1 1:2 2:3"/>
    </vehicle>
    <vehicle id="70" depart="49.00">
        <route edges="0:1 1:2 2:14 14:15"/>
    </vehicle>
    <vehicle id="71" depart="49.70">
        <route edges="11:10 10:0 0:1 1:12"/>
    </vehicle>
    <vehicle id="72" depart="50.40">
        <route edges="7:5 5:3 3:2 2:1 1:0 0:10 10:11"/>
    </vehicle>
    <vehicle id="74" depart="51.80">
        <route edges="3:2 2:1"/>
    </vehicle>
    <vehicle id="75" depart="52.50">
        <route edges="7:5 5:3 3:2 2:1 1:0 0:10 10:11"/>
    </vehicle>
    <vehicle id="76" depart="53.20">
        <route edges="9:8 8:0 0:1 1:2 2:3 3:5 5:7"/>
    </vehicle>
    <vehicle id="80" depart="56.00">
        <route edges="6:4 4:0 0:8 8:9"/>
    </vehicle>
    <vehicle id="84" depart="58.80">
        <route edges="6:4 4:0 0:1 1:2 2:3 3:5 5:7"/>
    </vehicle>
    <vehicle id="85" depart="59.50">
        <route edges="17:16 16:3 3:2 2:1 1:0 0:4"/>
    </vehicle>
    <vehicle id="87" depart="60.90">
        <route edges="16:3 3:2 2:1 1:0 0:4 4:6"/>
    </vehicle>
    <vehicle id="92" depart="64.40">
        <route edges="4:0 0:1 1:2 2:3"/>
    </vehicle>
    <vehicle id="93" depart="65.10">
        <route edges="10:0 0:1"/>
    </vehicle>
    <vehicle id="94" depart="65.80">
        <route edges="6:4 4:0 0:1 1:2 2:3 3:5"/>
    </vehicle>
    <vehicle id="96" depart="67.20">
        <route edges="7:5 5:3 3:2 2:1 1:12 12:13"/>
    </vehicle>
    <vehicle id="97" depart="67.90">
        <route edges="6:4 4:0 0:1 1:2 2:3 3:5 5:7"/>
    </vehicle>
    <vehicle id="98" depart="68.60">
        <route edges="13:12 12:1 1:2 2:3 3:5 5:7"/>
    </vehicle>
    <vehicle id="100" depart="70.00">
        <route edges="9:8 8:0 0:10 10:11"/>
    </vehicle>
    <vehicle id="101" depart="70.70">
        <route edges="5:3 3:2 2:1 1:0 0:8 8:9"/>
    </vehicle>
    <vehicle id="102" depart="71.40">
        <route edges="6:4 4:0 0:1 1:12 12:13"/>
    </vehicle>
    <vehicle id="103" depart="72.10">
        <route edges="17:16 16:3 3:2 2:1 1:0"/>
    </vehicle>
    <vehicle id="104" depart="72.80">
        <route edges="6:4 4:0 0:1 1:2 2:3"/>
    </vehicle>
    <vehicle id="105" depart="73.50">
        <route edges="17:16 16:3 3:18"/>
    </vehicle>
    <vehicle id="106" depart="74.20">
        <route edges="13:12 12:1 1:0"/>
    </vehicle>
    <vehicle id="109" depart="76.30">
        <route edges="7:5 5:3"/>
    </vehicle>
    <vehicle id="110" depart="77.00">
        <route edges="9:8 8:0 0:1 1:2 2:3 3:5 5:7"/>
    </vehicle>
    <vehicle id="111" depart="77.70">
        <route edges="7:5 5:3 3:2 2:1 1:0 0:4 4:6"/>
    </vehicle>
    <vehicle id="113" depart="79.10">
        <route edges="7:5 5:3"/>
    </vehicle>
    <vehicle id="116" depart="81.20">
        <route edges="15:14 14:2 2:1 1:0 0:10 10:11"/>
    </vehicle>
    <vehicle id="118" depart="82.60">
        <route edges="15:14 14:2 2:1 1:0 0:4 4:6"/>
    </vehicle>
    <vehicle id="119" depart="83.30">
        <route edges="18:3 3:16 16:17"/>
    </vehicle>
    <vehicle id="124" depart="86.80">
        <route edges="15:14 14:2 2:1 1:0"/>
    </vehicle>
    <vehicle id="127" depart="88.90">
        <route edges="4:0 0:8 8:9"/>
    </vehicle>
    <vehicle id="128" depart="89.60">
        <route edges="9:8 8:0 0:4 4:6"/>
    </vehicle>
    <vehicle id="131" depart="91.70">
        <route edges="11:10 10:0 0:1 1:2 2:3"/>
    </vehicle>
    <vehicle id="136" depart="95.20">
        <route edges="13:12 12:1 1:2 2:3 3:16 16:17"/>
    </vehicle>
    <vehicle id="137" depart="95.90">
        <route edges="0:4 4:6"/>
    </vehicle>
    <vehicle id="138" depart="96.60">
        <route edges="6:4 4:0 0:1 1:12"/>
    </vehicle>
    <vehicle id="140" depart="98.00">
        <route edges="18:3 3:2 2:1 1:0 0:4 4:6"/>
    </vehicle>
    <vehicle id="143" depart="100.10">
        <route edges="15:14 14:2 2:1 1:0 0:8 8:9"/>
    </vehicle>
    <vehicle id="144" depart="100.80">
        <route edges="3:16 16:17"/>
    </vehicle>
    <vehicle id="148" depart="103.60">
        <route edges="15:14 14:2 2:3 3:18"/>
    </vehicle>
    <vehicle id="150" depart="105.00">
        <route edges="1:2 2:3 3:16 16:17"/>
    </vehicle>
    <vehicle id="151" depart="105.70">
        <route edges="18:3 3:5 5:7"/>
    </vehicle>
    <vehicle id="153" depart="107.10">
        <route edges="6:4 4:0 0:10"/>
    </vehicle>
    <vehicle id="154" depart="107.80">
        <route edges="18:3 3:2 2:1 1:0 0:10 10:11"/>
    </vehicle>
    <vehicle id="155" depart="108.50">
        <route edges="2:3 3:5 5:7"/>
    </vehicle>
    <vehicle id="156" depart="109.20">
        <route edges="9:8 8:0 0:1 1:2 2:3"/>
    </vehicle>
    <vehicle id="158" depart="110.60">
        <route edges="9:8 8:0 0:1 1:2 2:3 3:5 5:7"/>
    </vehicle>
    <vehicle id="163" depart="114.10">
        <route edges="7:5 5:3 3:16 16:17"/>
    </vehicle>
    <vehicle id="164" depart="114.80">
        <route edges="6:4 4:0 0:1 1:2 2:3 3:5 5:7"/>
    </vehicle>
    <vehicle id="166" depart="116.20">
        <route edges="15:14 14:2 2:1 1:0 0:4 4:6"/>
    </vehicle>
    <vehicle id="168" depart="117.60">
        <route edges="19:18 18:3 3:2 2:1 1:0 0:8 8:9"/>
    </vehicle>
    <vehicle id="170" depart="119.00">
        <route edges="19:18 18:3 3:5"/>
    </vehicle>
    <vehicle id="171" depart="119.70">
        <route edges="7:5 5:3 3:2 2:1"/>
    </vehicle>
    <vehicle id="172" depart="120.40">
        <route edges="19:18 18:3 3:5 5:7"/>
    </vehicle>
    <vehicle id="173" depart="121.10">
        <route edges="9:8 8:0 0:1 1:2 2:3 3:5"/>
    </vehicle>
    <vehicle id="174" depart="121.80">
        <route edges="9:8 8:0 0:1 1:2 2:3 3:18 18:19"/>
    </vehicle>
    <vehicle id="175" depart="122.50">
        <route edges="19:18 18:3 3:2 2:1 1:0 0:4"/>
    </vehicle>
    <vehicle id="176" depart="123.20">
        <route edges="3:18 18:19"/>
    </vehicle>
    <vehicle id="177" depart="123.90">
        <route edges="15:14 14:2 2:1 1:0 0:4"/>
    </vehicle>
    <vehicle id="179" depart="125.30">
        <route edges="13:12 12:1 1:2 2:3 3:5 5:7"/>
    </vehicle>
    <vehicle id="182" depart="127.40">
        <route edges="14:2 2:1"/>
    </vehicle>
    <vehicle id="187" depart="130.90">
        <route edges="14:2 2:3"/>
    </vehicle>
    <vehicle id="191" depart="133.70">
        <route edges="8:0 0:4 4:6"/>
    </vehicle>
    <vehicle id="193" depart="135.10">
        <route edges="6:4 4:0 0:1 1:2 2:3 3:5"/>
    </vehicle>
    <vehicle id="196" depart="137.20">
        <route edges="9:8 8:0 0:1 1:12 12:13"/>
    </vehicle>
    <vehicle id="197" depart="137.90">
        <route edges="6:4 4:0 0:1 1:2 2:14 14:15"/>
    </vehicle>
    <vehicle id="199" depart="139.30">
        <route edges="10:0 0:1 1:2 2:3 3:5"/>
    </vehicle>
    <vehicle id="201" depart="140.70">
        <route edges="9:8 8:0 0:4 4:6"/>
    </vehicle>
    <vehicle id="202" depart="141.40">
        <route edges="15:14 14:2 2:1 1:0 0:4 4:6"/>
    </vehicle>
    <vehicle id="203" depart="142.10">
        <route edges="13:12 12:1 1:2 2:3 3:16"/>
    </vehicle>
    <vehicle id="206" depart="144.20">
        <route edges="15:14 14:2 2:1 1:0 0:8 8:9"/>
    </vehicle>
    <vehicle id="207" depart="144.90">
        <route edges="12:1 1:2 2:3"/>
    </vehicle>
    <vehicle id="209" depart="146.30">
        <route edges="13:12 12:1 1:2 2:14 14:15"/>
    </vehicle>
    <vehicle id="210" depart="147.00">
        <route edges="17:16 16:3 3:2 2:1 1:0 0:10"/>
    </vehicle>
    <vehicle id="212" depart="148.40">
        <route edges="7:5 5:3 3:2 2:1 1:0 0:8 8:9"/>
    </vehicle>
    <vehicle id="214" depart="149.80">
        <route edges="6:4 4:0 0:1 1:2 2:3"/>
    </vehicle>
    <vehicle id="216" depart="151.20">
        <route edges="2:1 1:12 12:13"/>
    </vehicle>
    <vehicle id="217" depart="151.90">
        <route edges="11:10 10:0 0:1 1:12"/>
    </vehicle>
    <vehicle id="220" depart="154.00">
        <route edges="10:0 0:1 1:2 2:3 3:5 5:7"/>
    </vehicle>
    <vehicle id="221" depart="154.70">
        <route edges="19:18 18:3 3:5 5:7"/>
    </vehicle>
    <vehicle id="222" depart="155.40">
        <route edges="3:2 2:1 1:12 12:13"/>
    </vehicle>
    <vehicle id="224" depart="156.80">
        <route edges="10:0 0:1 1:2 2:3 3:16 16:17"/>
    </vehicle>
    <vehicle id="228" depart="159.60">
        <route edges="19:18 18:3 3:2 2:1 1:0 0:4"/>
    </vehicle>
    <vehicle id="229" depart="160.30">
        <route edges="7:5 5:3 3:2 2:1 1:0 0:4 4:6"/>
    </vehicle>
    <vehicle id="230" depart="161.00">
        <route edges="9:8 8:0 0:1 1:2 2:3 3:5 5:7"/>
    </vehicle>
    <vehicle id="234" depart="163.80">
        <route edges="6:4 4:0 0:1 1:2 2:3 3:18 18:19"/>
    </vehicle>
    <vehicle id="235" depart="164.50">
        <route edges="10:0 0:1 1:2 2:3"/>
    </vehicle>
    <vehicle id="236" depart="165.20">
        <route edges="14:2 2:3 3:5 5:7"/>
    </vehicle>
    <vehicle id="238" depart="166.60">
        <route edges="19:18 18:3 3:2 2:1 1:12 12:13"/>
    </vehicle>
    <vehicle id="240" depart="168.00">
        <route edges="13:12 12:1 1:2 2:3 3:18 18:19"/>
    </vehicle>
    <vehicle id="241" depart="168.70">
        <route edges="13:12 12:1 1:0 0:8 8:9"/>
    </vehicle>
    <vehicle id="243" depart="170.10">
        <route edges="11:10 10:0 0:1 1:2 2:3 3:18 18:19"/>
    </vehicle>
    <vehicle id="244" depart="170.80">
        <route edges="6:4 4:0 0:10 10:11"/>
    </vehicle>
    <vehicle id="246" depart="172.20">
        <route edges="5:3 3:2 2:1 1:0 0:10 10:11"/>
    </vehicle>
    <vehicle id="247" depart="172.90">
        <route edges="11:10 10:0 0:1 1:2 2:14 14:15"/>
    </vehicle>
    <vehicle id="248" depart="173.60">
        <route edges="7:5 5:3 3:2 2:1 1:0 0:4 4:6"/>
    </vehicle>
    <vehicle id="249" depart="174.30">
        <route edges="6:4 4:0 0:1 1:2 2:3 3:18 18:19"/>
    </vehicle>
    <vehicle id="251" depart="175.70">
        <route edges="18:3 3:2 2:1"/>
    </vehicle>
    <vehicle id="257" depart="179.90">
        <route edges="18:3 3:2 2:1 1:0 0:4 4:6"/>
    </vehicle>
    <vehicle id="258" depart="180.60">
        <route edges="6:4 4:0 0:1 1:12"/>
    </vehicle>
    <vehicle id="261" depart="182.70">
        <route edges="2:3 3:16 16:17"/>
    </vehicle>
    <vehicle id="262" depart="183.40">
        <route edges="9:8 8:0 0:1 1:2 2:3 3:16 16:17"/>
    </vehicle>
    <vehicle id="265" depart="185.50">
        <route edges="19:18 18:3 3:2"/>
    </vehicle>
    <vehicle id="268" depart="187.60">
        <route edges="6:4 4:0 0:1 1:2 2:3 3:18 18:19"/>
    </vehicle>
    <vehicle id="270" depart="189.00">
        <route edges="6:4 4:0 0:1 1:12 12:13"/>
    </vehicle>
    <vehicle id="272" depart="190.40">
        <route edges="13:12 12:1 1:2 2:3 3:16 16:17"/>
    </vehicle>
    <vehicle id="273" depart="191.10">
        <route edges="18:3 3:16 16:17"/>
    </vehicle>
    <vehicle id="274" depart="191.80">
        <route edges="17:16 16:3 3:2 2:1"/>
    </vehicle>
    <vehicle id="275" depart="192.50">
        <route edges="7:5 5:3 3:2 2:1 1:0 0:4 4:6"/>
    </vehicle>
    <vehicle id="276" depart="193.20">
        <route edges="10:0 0:1 1:2 2:3"/>
    </vehicle>
    <vehicle id="281" depart="196.70">
        <route edges="15:14 14:2 2:1 1:0 0:10 10:11"/>
    </vehicle>
    <vehicle id="283" depart="198.10">
        <route edges="15:14 14:2 2:3"/>
    </vehicle>
    <vehicle id="284" depart="198.80">
        <route edges="3:2 2:1 1:0 0:4 4:6"/>
    </vehicle>
    <vehicle id="285" depart="199.50">
        <route edges="15:14 14:2 2:3 3:5 5:7"/>
    </vehicle>
    <vehicle id="286" depart="200.20">
        <route edges="19:18 18:3 3:5 5:7"/>
    </vehicle>
    <vehicle id="287" depart="200.90">
        <route edges="19:18 18:3 3:2 2:1 1:12 12:13"/>
    </vehicle>
    <vehicle id="289" depart="202.30">
        <route edges="18:3 3:2 2:1 1:0 0:4 4:6"/>
    </vehicle>
    <vehicle id="292" depart="204.40">
        <route edges="3:5"/>
    </vehicle>
    <vehicle id="295" depart="206.50">
        <route edges="6:4 4:0 0:1 1:2 2:3 3:5 5:7"/>
    </vehicle>
    <vehicle id="296" depart="207.20">
        <route edges="13:12 12:1 1:0 0:10 10:11"/>
    </vehicle>
    <vehicle id="298" depart="208.60">
        <route edges="16:3 3:5 5:7"/>
    </vehicle>
    <vehicle id="299" depart="209.30">
        <route edges="6:4 4:0 0:1 1:2 2:3 3:16 16:17"/>
    </vehicle>
    <vehicle id="300" depart="210.00">
        <route edges="4:0 0:1 1:2 2:3 3:5 5:7"/>
    </vehicle>
    <vehicle id="304" depart="212.80">
        <route edges="19:18 18:3 3:2 2:1 1:0 0:10 10:11"/>
    </vehicle>
    <vehicle id="305" depart="213.50">
        <route edges="4:0 0:8 8:9"/>
    </vehicle>
    <vehicle id="308" depart="215.60">
        <route edges="6:4 4:0 0:1 1:2 2:3 3:16 16:17"/>
    </vehicle>
    <vehicle id="309" depart="216.30">
        <route edges="13:12 12:1 1:0 0:10"/>
    </vehicle>
    <vehicle id="311" depart="217.70">
        <route edges="19:18 18:3 3:2 2:14 14:15"/>
    </vehicle>
    <vehicle id="313" depart="219.10">
        <route edges="17:16 16:3 3:2 2:1 1:0 0:4 4:6"/>
    </vehicle>
    <vehicle id="314" depart="219.80">
        <route edges="6:4 4:0"/>
    </vehicle>
    <vehicle id="315" depart="220.50">
        <route edges="9:8 8:0 0:1 1:2 2:3 3:5 5:7"/>
    </vehicle>
    <vehicle id="316" depart="221.20">
        <route edges="9:8 8:0 0:1 1:2 2:14 14:15"/>
    </vehicle>
    <vehicle id="317" depart="221.90">
        <route edges="11:10 10:0 0:4 4:6"/>
    </vehicle>
    <vehicle id="318" depart="222.60">
        <route edges="9:8 8:0 0:1 1:2 2:3 3:16 16:17"/>
    </vehicle>
    <vehicle id="323" depart="226.10">
        <route edges="14:2 2:1 1:12 12:13"/>
    </vehicle>
    <vehicle id="324" depart="226.80">
        <route edges="6:4 4:0 0:1 1:2 2:3 3:5 5:7"/>
    </vehicle>
    <vehicle id="327" depart="228.90">
        <route edges="9:8 8:0 0:4 4:6"/>
    </vehicle>
    <vehicle id="328" depart="229.60">
        <route edges="15:14 14:2 2:1 1:0 0:4 4:6"/>
    </vehicle>
    <vehicle id="329" depart="230.30">
        <route edges="1:2 2:3 3:5 5:7"/>
    </vehicle>
    <vehicle id="330" depart="231.00">
        <route edges="13:12 12:1 1:2 2:14 14:15"/>
    </vehicle>
    <vehicle id="331" depart="231.70">
        <route edges="9:8 8:0 0:1 1:2 2:3 3:5 5:7"/>
    </vehicle>
    <vehicle id="333" depart="233.10">
        <route edges="19:18 18:3 3:2 2:14 14:15"/>
    </vehicle>
    <vehicle id="334" depart="233.80">
        <route edges="0:1 1:2 2:3 3:18 18:19"/>
    </vehicle>
    <vehicle id="335" depart="234.50">
        <route edges="7:5 5:3 3:2 2:1"/>
    </vehicle>
    <vehicle id="337" depart="235.90">
        <route edges="15:14 14:2 2:1 1:0 0:4"/>
    </vehicle>
    <vehicle id="338" depart="236.60">
        <route edges="9:8 8:0 0:4 4:6"/>
    </vehicle>
    <vehicle id="340" depart="238.00">
        <route edges="6:4 4:0 0:1 1:12"/>
    </vehicle>
    <vehicle id="341" depart="238.70">
        <route edges="6:4 4:0 0:8 8:9"/>
    </vehicle>
    <vehicle id="345" depart="241.50">
        <route edges="13:12 12:1 1:0 0:4"/>
    </vehicle>
    <vehicle id="346" depart="242.20">
        <route edges="6:4 4:0 0:1 1:12 12:13"/>
    </vehicle>
    <vehicle id="347" depart="242.90">
        <route edges="6:4 4:0 0:8"/>
    </vehicle>
    <vehicle id="348" depart="243.60">
        <route edges="17:16 16:3 3:2 2:14 14:15"/>
    </vehicle>
    <vehicle id="349" depart="244.30">
        <route edges="19:18 18:3 3:5"/>
    </vehicle>
    <vehicle id="354" depart="247.80">
        <route edges="9:8 8:0 0:10 10:11"/>
    </vehicle>
    <vehicle id="357" depart="249.90">
        <route edges="15:14 14:2 2:3 3:5"/>
    </vehicle>
    <vehicle id="358" depart="250.60">
        <route edges="15:14 14:2 2:1 1:0 0:10 10:11"/>
    </vehicle>
    <vehicle id="359" depart="251.30">
        <route edges="6:4 4:0 0:1 1:2 2:3 3:18 18:19"/>
    </vehicle>
    <vehicle id="361" depart="252.70">
        <route edges="7:5 5:3"/>
    </vehicle>
    <vehicle id="362" depart="253.40">
        <route edges="14:2 2:3 3:18 18:19"/>
    </vehicle>
    <vehicle id="364" depart="254.80">
        <route edges="19:18 18:3 3:2 2:1 1:0 0:4"/>
    </vehicle>
    <vehicle id="367" depart="256.90">
        <route edges="2:3 3:16 16:17"/>
    </vehicle>
    <vehicle id="368" depart="257.60">
        <route edges="15:14 14:2 2:1 1:0 0:10"/>
    </vehicle>
    <vehicle id="369" depart="258.30">
        <route edges="13:12 12:1 1:2 2:3 3:5 5:7"/>
    </vehicle>
    <vehicle id="370" depart="259.00">
        <route edges="7:5 5:3 3:2 2:14 14:15"/>
    </vehicle>
    <vehicle id="371" depart="259.70">
        <route edges="3:2 2:14 14:15"/>
    </vehicle>
    <vehicle id="376" depart="263.20">
        <route edges="17:16 16:3 3:2 2:1 1:12 12:13"/>
    </vehicle>
    <vehicle id="377" depart="263.90">
        <route edges="17:16 16:3 3:2 2:1 1:0 0:10 10:11"/>
    </vehicle>
    <vehicle id="379" depart="265.30">
        <route edges="13:12 12:1 1:2 2:3"/>
    </vehicle>
    <vehicle id="380" depart="266.00">
        <route edges="6:4 4:0 0:1 1:2 2:3 3:18 18:19"/>
    </vehicle>
    <vehicle id="381" depart="266.70">
        <route edges="8:0 0:1 1:2 2:14 14:15"/>
    </vehicle>
    <vehicle id="382" depart="267.40">
        <route edges="4:0 0:1 1:2 2:3 3:16 16:17"/>
    </vehicle>
    <vehicle id="384" depart="268.80">
        <route edges="19:18 18:3 3:2 2:1 1:12 12:13"/>
    </vehicle>
    <vehicle id="385" depart="269.50">
        <route edges="14:2 2:3 3:18 18:19"/>
    </vehicle>
    <vehicle id="388" depart="271.60">
        <route edges="6:4 4:0 0:1 1:2 2:3 3:16 16:17"/>
    </vehicle>
    <vehicle id="390" depart="273.00">
        <route edges="9:8 8:0 0:1 1:2 2:14 14:15"/>
    </vehicle>
    <vehicle id="393" depart="275.10">
        <route edges="7:5 5:3 3:2 2:1 1:0 0:4 4:6"/>
    </vehicle>
    <vehicle id="394" depart="275.80">
        <route edges="2:1 1:12 12:13"/>
    </vehicle>
    <vehicle id="396" depart="277.20">
        <route edges="4:0 0:1 1:2 2:3"/>
    </vehicle>
    <vehicle id="397" depart="277.90">
        <route edges="7:5 5:3 3:2"/>
    </vehicle>
    <vehicle id="398" depart="278.60">
        <route edges="6:4 4:0 0:1 1:2 2:3 3:18 18:19"/>
    </vehicle>
    <vehicle id="403" depart="282.10">
        <route edges="6:4 4:0 0:1 1:2 2:3 3:5 5:7"/>
    </vehicle>
    <vehicle id="404" depart="282.80">
        <route edges="9:8 8:0 0:1 1:2 2:3 3:18"/>
    </vehicle>
    <vehicle id="406" depart="284.20">
        <route edges="9:8 8:0 0:1 1:2 2:3 3:5"/>
    </vehicle>
    <vehicle id="407" depart="284.90">
        <route edges="6:4 4:0 0:1 1:2 2:3 3:5 5:7"/>
    </vehicle>
    <vehicle id="408" depart="285.60">
        <route edges="13:12 12:1 1:2 2:14 14:15"/>
    </vehicle>
    <vehicle id="409" depart="286.30">
        <route edges="6:4 4:0"/>
    </vehicle>
    <vehicle id="410" depart="287.00">
        <route edges="17:16 16:3 3:2 2:1 1:0 0:4"/>
    </vehicle>
    <vehicle id="411" depart="287.70">
        <route edges="8:0 0:1 1:12"/>
    </vehicle>
    <vehicle id="413" depart="289.10">
        <route edges="7:5 5:3 3:2 2:1 1:0 0:10 10:11"/>
    </vehicle>
    <vehicle id="414" depart="289.80">
        <route edges="13:12 12:1 1:2 2:3 3:16 16:17"/>
    </vehicle>
    <vehicle id="415" depart="290.50">
        <route edges="12:1 1:2 2:3 3:5 5:7"/>
    </vehicle>
    <vehicle id="421" depart="294.70">
        <route edges="7:5 5:3 3:16"/>
    </vehicle>
    <vehicle id="422" depart="295.40">
        <route edges="17:16 16:3 3:2 2:1 1:0"/>
    </vehicle>
    <vehicle id="424" depart="296.80">
        <route edges="11:10 10:0 0:1 1:2"/>
    </vehicle>
    <vehicle id="427" depart="298.90">
        <route edges="1:12 12:13"/>
    </vehicle>
    <vehicle id="428" depart="299.60">
        <route edges="19:18 18:3 3:2 2:1 1:0 0:8 8:9"/>
    </vehicle>
    <vehicle id="429" depart="300.30">
        <route edges="7:5 5:3 3:2 2:1 1:0 0:4"/>
    </vehicle>
    <vehicle id="430" depart="301.00">
        <route edges="16:3 3:2 2:1 1:12 12:13"/>
    </vehicle>
    <vehicle id="431" depart="301.70">
        <route edges="7:5 5:3 3:2 2:1 1:0 0:8 8:9"/>
    </vehicle>
    <vehicle id="432" depart="302.40">
        <route edges="12:1 1:2 2:3 3:18 18:19"/>
    </vehicle>
    <vehicle id="433" depart="303.10">
        <route edges="17:16 16:3 3:2"/>
    </vehicle>
    <vehicle id="438" depart="306.60">
        <route edges="6:4 4:0 0:1"/>
    </vehicle>
    <vehicle id="439" depart="307.30">
        <route edges="6:4 4:0 0:1 1:2 2:3 3:5 5:7"/>
    </vehicle>
    <vehicle id="440" depart="308.00">
        <route edges="5:3 3:2 2:1 1:0 0:4 4:6"/>
    </vehicle>
    <vehicle id="441" depart="308.70">
        <route edges="11:10 10:0 0:4 4:6"/>
    </vehicle>
    <vehicle id="442" depart="309.40">
        <route edges="6:4 4:0 0:8 8:9"/>
    </vehicle>
    <vehicle id="443" depart="310.10">
        <route edges="7:5 5:3 3:2 2:1 1:0 0:4"/>
    </vehicle>
    <vehicle id="446" depart="312.20">
        <route edges="8:0 0:1 1:2 2:3 3:5 5:7"/>
    </vehicle>
    <vehicle id="450" depart="315.00">
        <route edges="7:5 5:3 3:2 2:1 1:12"/>
    </vehicle>
    <vehicle id="453" depart="317.10">
        <route edges="7:5 5:3 3:16 16:17"/>
    </vehicle>
    <vehicle id="455" depart="318.50">
        <route edges="3:5 5:7"/>
    </vehicle>
    <vehicle id="456" depart="319.20">
        <route edges="7:5 5:3 3:2 2:1 1:0 0:8 8:9"/>
    </vehicle>
    <vehicle id="458" depart="320.60">
        <route edges="6:4 4:0 0:1 1:2 2:3 3:5 5:7"/>
    </vehicle>
    <vehicle id="459" depart="321.30">
        <route edges="15:14 14:2 2:3"/>
    </vehicle>
    <vehicle id="461" depart="322.70">
        <route edges="17:16 16:3 3:5 5:7"/>
    </vehicle>
    <vehicle id="463" depart="324.10">
        <route edges="11:10 10:0 0:1"/>
    </vehicle>
    <vehicle id="464" depart="324.80">
        <route edges="9:8 8:0 0:1 1:2 2:14 14:15"/>
    </vehicle>
    <vehicle id="465" depart="325.50">
        <route edges="4:0 0:1 1:2 2:14 14:15"/>
    </vehicle>
    <vehicle id="468" depart="327.60">
        <route edges="6:4 4:0 0:1 1:2 2:14"/>
    </vehicle>
    <vehicle id="470" depart="329.00">
        <route edges="17:16 16:3 3:2 2:14 14:15"/>
    </vehicle>
    <vehicle id="472" depart="330.40">
        <route edges="1:2 2:3 3:5 5:7"/>
    </vehicle>
    <vehicle id="473" depart="331.10">
        <route edges="3:18 18:19"/>
    </vehicle>
    <vehicle id="474" depart="331.80">
        <route edges="15:14 14:2 2:1 1:0 0:4 4:6"/>
    </vehicle>
    <vehicle id="475" depart="332.50">
        <route edges="6:4 4:0 0:8 8:9"/>
    </vehicle>
    <vehicle id="476" depart="333.20">
        <route edges="7:5 5:3 3:2 2:1 1:0 0:4 4:6"/>
    </vehicle>
    <vehicle id="479" depart="335.30">
        <route edges="6:4 4:0 0:1 1:2 2:14"/>
    </vehicle>
    <vehicle id="481" depart="336.70">
        <route edges="3:18 18:19"/>
    </vehicle>
    <vehicle id="485" depart="339.50">
        <route edges="6:4 4:0 0:1 1:2 2:3 3:18 18:19"/>
    </vehicle>
    <vehicle id="486" depart="340.20">
        <route edges="7:5 5:3 3:2 2:1 1:0 0:4 4:6"/>
    </vehicle>
    <vehicle id="488" depart="341.60">
        <route edges="7:5 5:3 3:2 2:1"/>
    </vehicle>
    <vehicle id="489" depart="342.30">
        <route edges="5:3 3:2 2:14 14:15"/>
    </vehicle>
    <vehicle id="490" depart="343.00">
        <route edges="9:8 8:0 0:1 1:2 2:3"/>
    </vehicle>
    <vehicle id="492" depart="344.40">
        <route edges="9:8 8:0 0:1 1:2 2:14 14:15"/>
    </vehicle>
    <vehicle id="494" depart="345.80">
        <route edges="4:0 0:1 1:2 2:3 3:5 5:7"/>
    </vehicle>
    <vehicle id="495" depart="346.50">
        <route edges="4:0 0:1 1:2 2:3 3:5 5:7"/>
    </vehicle>
    <vehicle id="496" depart="347.20">
        <route edges="6:4 4:0 0:1 1:2 2:3 3:5 5:7"/>
    </vehicle>
    <vehicle id="497" depart="347.90">
        <route edges="7:5 5:3 3:2 2:14 14:15"/>
    </vehicle>
    <vehicle id="500" depart="350.00">
        <route edges="6:4 4:0 0:1 1:2 2:3 3:5"/>
    </vehicle>
    <vehicle id="502" depart="351.40">
        <route edges="6:4 4:0 0:1 1:2 2:3 3:18 18:19"/>
    </vehicle>
    <vehicle id="503" depart="352.10">
        <route edges="13:12 12:1 1:2 2:3 3:18 18:19"/>
    </vehicle>
    <vehicle id="506" depart="354.20">
        <route edges="9:8 8:0 0:10 10:11"/>
    </vehicle>
    <vehicle id="507" depart="354.90">
        <route edges="11:10 10:0 0:1 1:2 2:14 14:15"/>
    </vehicle>
    <vehicle id="508" depart="355.60">
        <route edges="5:3 3:16 16:17"/>
    </vehicle>
    <vehicle id="510" depart="357.00">
        <route edges="6:4 4:0 0:1 1:2 2:3 3:5"/>
    </vehicle>
    <vehicle id="511" depart="357.70">