<?xml version="1.0" encoding="UTF-8"?>

<!-- generated on Thu Oct 23 22:34:22 2014 by SUMO duarouter Version 0.18.0
<?xml version="1.0" encoding="UTF-8"?>

<configuration xmlns:xsi="http://www.w3.org/2001/XMLSchema-instance" xsi:noNamespaceSchemaLocation="http://sumo.sf.net/xsd/duarouterConfiguration.xsd">

    <input>
        <net-file value="corridor.net.xml"/>
        <trip-files value="experimentos/corridor.p0.4.9.trips.xml"/>
    </input>

    <output>
        <output-file value="experimentos/corridor.p0.4.9.rou.xml"/>
    </output>

    <processing>
        <ignore-errors value="true"/>
    </processing>

    <random_number>
        <random value="true"/>
    </random_number>

</configuration>
-->

<routes xmlns:xsi="http://www.w3.org/2001/XMLSchema-instance" xsi:noNamespaceSchemaLocation="http://sumo.sf.net/xsd/routes_file.xsd">
    <vehicle id="1" depart="0.40">
        <route edges="11:10 10:0 0:4"/>
    </vehicle>
    <vehicle id="3" depart="1.20">
        <route edges="12:1 1:2"/>
    </vehicle>
    <vehicle id="4" depart="1.60">
        <route edges="0:1 1:2 2:14 14:15"/>
    </vehicle>
    <vehicle id="5" depart="2.00">
        <route edges="13:12 12:1 1:2 2:3 3:5 5:7"/>
    </vehicle>
    <vehicle id="8" depart="3.20">
        <route edges="15:14 14:2 2:1 1:0 0:10"/>
    </vehicle>
    <vehicle id="11" depart="4.40">
        <route edges="19:18 18:3 3:5 5:7"/>
    </vehicle>
    <vehicle id="12" depart="4.80">
        <route edges="1:2 2:3 3:5 5:7"/>
    </vehicle>
    <vehicle id="13" depart="5.20">
        <route edges="2:3 3:5 5:7"/>
    </vehicle>
    <vehicle id="14" depart="5.60">
        <route edges="2:3 3:5 5:7"/>
    </vehicle>
    <vehicle id="16" depart="6.40">
        <route edges="4:0 0:1 1:2 2:3 3:5"/>
    </vehicle>
    <vehicle id="19" depart="7.60">
        <route edges="9:8 8:0 0:1 1:12"/>
    </vehicle>
    <vehicle id="20" depart="8.00">
        <route edges="4:0 0:1 1:2 2:3 3:5 5:7"/>
    </vehicle>
    <vehicle id="22" depart="8.80">
        <route edges="13:12 12:1 1:2 2:3 3:5 5:7"/>
    </vehicle>
    <vehicle id="26" depart="10.40">
        <route edges="18:3 3:2 2:1 1:0 0:4 4:6"/>
    </vehicle>
    <vehicle id="28" depart="11.20">
        <route edges="16:3 3:2 2:1 1:0 0:8 8:9"/>
    </vehicle>
    <vehicle id="34" depart="13.60">
        <route edges="17:16 16:3 3:2 2:1 1:0 0:4 4:6"/>
    </vehicle>
    <vehicle id="36" depart="14.40">
        <route edges="7:5 5:3 3:2 2:14 14:15"/>
    </vehicle>
    <vehicle id="42" depart="16.80">
        <route edges="12:1 1:2 2:3"/>
    </vehicle>
    <vehicle id="43" depart="17.20">
        <route edges="6:4 4:0 0:8 8:9"/>
    </vehicle>
    <vehicle id="44" depart="17.60">
        <route edges="7:5 5:3 3:2 2:1 1:0 0:8 8:9"/>
    </vehicle>
    <vehicle id="45" depart="18.00">
        <route edges="7:5 5:3 3:16 16:17"/>
    </vehicle>
    <vehicle id="47" depart="18.80">
        <route edges="6:4 4:0 0:1 1:2 2:3 3:5"/>
    </vehicle>
    <vehicle id="48" depart="19.20">
        <route edges="6:4 4:0 0:1 1:2 2:3 3:5 5:7"/>
    </vehicle>
    <vehicle id="49" depart="19.60">
        <route edges="17:16 16:3 3:2 2:1 1:0 0:4 4:6"/>
    </vehicle>
    <vehicle id="51" depart="20.40">
        <route edges="5:3 3:2 2:1 1:0 0:10"/>
    </vehicle>
    <vehicle id="52" depart="20.80">
        <route edges="6:4 4:0 0:1 1:2 2:3 3:16 16:17"/>
    </vehicle>
    <vehicle id="54" depart="21.60">
        <route edges="6:4 4:0 0:1 1:2 2:3 3:16"/>
    </vehicle>
    <vehicle id="55" depart="22.00">
        <route edges="5:3 3:2 2:1"/>
    </vehicle>
    <vehicle id="58" depart="23.20">
        <route edges="18:3 3:2 2:1 1:0"/>
    </vehicle>
    <vehicle id="61" depart="24.40">
        <route edges="8:0 0:1 1:2 2:3 3:5 5:7"/>
    </vehicle>
    <vehicle id="64" depart="25.60">
        <route edges="14:2 2:1 1:12 12:13"/>
    </vehicle>
    <vehicle id="65" depart="26.00">
        <route edges="2:1 1:0 0:4 4:6"/>
    </vehicle>
    <vehicle id="66" depart="26.40">
        <route edges="12:1 1:2 2:3 3:5"/>
    </vehicle>
    <vehicle id="67" depart="26.80">
        <route edges="6:4 4:0 0:1 1:2 2:14 14:15"/>
    </vehicle>
    <vehicle id="68" depart="27.20">
        <route edges="11:10 10:0 0:1 1:2 2:3 3:18 18:19"/>
    </vehicle>
    <vehicle id="69" depart="27.60">
        <route edges="10:0 0:4"/>
    </vehicle>
    <vehicle id="71" depart="28.40">
        <route edges="11:10 10:0 0:1 1:2 2:14"/>
    </vehicle>
    <vehicle id="74" depart="29.60">
        <route edges="4:0 0:8 8:9"/>
    </vehicle>
    <vehicle id="78" depart="31.20">
        <route edges="1:0 0:8 8:9"/>
    </vehicle>
    <vehicle id="79" depart="31.60">
        <route edges="4:0 0:8 8:9"/>
    </vehicle>
    <vehicle id="80" depart="32.00">
        <route edges="7:5 5:3 3:2 2:14 14:15"/>
    </vehicle>
    <vehicle id="82" depart="32.80">
        <route edges="10:0 0:1 1:2 2:3 3:5"/>
    </vehicle>
    <vehicle id="83" depart="33.20">
        <route edges="6:4 4:0 0:1 1:2 2:14 14:15"/>
    </vehicle>
    <vehicle id="84" depart="33.60">
        <route edges="3:5 5:7"/>
    </vehicle>
    <vehicle id="86" depart="34.40">
        <route edges="6:4 4:0 0:1 1:2 2:14"/>
    </vehicle>
    <vehicle id="87" depart="34.80">
        <route edges="7:5 5:3 3:2 2:1 1:0 0:4 4:6"/>
    </vehicle>
    <vehicle id="88" depart="35.20">
        <route edges="7:5 5:3 3:16 16:17"/>
    </vehicle>
    <vehicle id="90" depart="36.00">
        <route edges="3:5 5:7"/>
    </vehicle>
    <vehicle id="91" depart="36.40">
        <route edges="17:16 16:3 3:2 2:1 1:0 0:8 8:9"/>
    </vehicle>
    <vehicle id="94" depart="37.60">
        <route edges="19:18 18:3 3:2 2:1 1:12"/>
    </vehicle>
    <vehicle id="97" depart="38.80">
        <route edges="2:1 1:12"/>
    </vehicle>
    <vehicle id="98" depart="39.20">
        <route edges="8:0 0:1 1:2 2:3 3:5 5:7"/>
    </vehicle>
    <vehicle id="101" depart="40.40">
        <route edges="5:3 3:18 18:19"/>
    </vehicle>
    <vehicle id="103" depart="41.20">
        <route edges="7:5 5:3 3:2 2:1 1:0 0:10 10:11"/>
    </vehicle>
    <vehicle id="104" depart="41.60">
        <route edges="5:3 3:18 18:19"/>
    </vehicle>
    <vehicle id="105" depart="42.00">
        <route edges="15:14 14:2 2:1 1:0 0:8 8:9"/>
    </vehicle>
    <vehicle id="106" depart="42.40">
        <route edges="3:5 5:7"/>
    </vehicle>
    <vehicle id="111" depart="44.40">
        <route edges="16:3 3:5 5:7"/>
    </vehicle>
    <vehicle id="114" depart="45.60">
        <route edges="13:12 12:1 1:2 2:3"/>
    </vehicle>
    <vehicle id="115" depart="46.00">
        <route edges="7:5 5:3 3:2 2:1 1:0 0:4 4:6"/>
    </vehicle>
    <vehicle id="116" depart="46.40">
        <route edges="5:3 3:2 2:14 14:15"/>
    </vehicle>
    <vehicle id="118" depart="47.20">
        <route edges="10:0 0:1 1:2 2:3"/>
    </vehicle>
    <vehicle id="119" depart="47.60">
        <route edges="0:1 1:2 2:14"/>
    </vehicle>
    <vehicle id="120" depart="48.00">
        <route edges="6:4 4:0 0:8 8:9"/>
    </vehicle>
    <vehicle id="121" depart="48.40">
        <route edges="15:14 14:2 2:3 3:18 18:19"/>
    </vehicle>
    <vehicle id="122" depart="48.80">
        <route edges="3:2 2:1 1:0 0:4 4:6"/>
    </vehicle>
    <vehicle id="123" depart="49.20">
        <route edges="9:8 8:0 0:1 1:2 2:3 3:5 5:7"/>
    </vehicle>
    <vehicle id="124" depart="49.60">
        <route edges="7:5 5:3 3:2 2:1 1:0 0:10 10:11"/>
    </vehicle>
    <vehicle id="125" depart="50.00">
        <route edges="15:14 14:2 2:3 3:5 5:7"/>
    </vehicle>
    <vehicle id="127" depart="50.80">
        <route edges="9:8 8:0 0:1 1:2 2:3 3:18"/>
    </vehicle>
    <vehicle id="128" depart="51.20">
        <route edges="15:14 14:2 2:1 1:12 12:13"/>
    </vehicle>
    <vehicle id="132" depart="52.80">
        <route edges="9:8 8:0 0:4 4:6"/>
    </vehicle>
    <vehicle id="134" depart="53.60">
        <route edges="15:14 14:2 2:1 1:0 0:10 10:11"/>
    </vehicle>
    <vehicle id="137" depart="54.80">
        <route edges="6:4 4:0 0:1 1:2 2:3 3:5 5:7"/>
    </vehicle>
    <vehicle id="139" depart="55.60">
        <route edges="17:16 16:3 3:2 2:1 1:0 0:10 10:11"/>
    </vehicle>
    <vehicle id="142" depart="56.80">
        <route edges="4:0 0:1 1:2 2:3 3:16 16:17"/>
    </vehicle>
    <vehicle id="144" depart="57.60">
        <route edges="11:10 10:0 0:1 1:12"/>
    </vehicle>
    <vehicle id="145" depart="58.00">
        <route edges="14:2 2:1 1:0 0:8 8:9"/>
    </vehicle>
    <vehicle id="146" depart="58.40">
        <route edges="6:4 4:0 0:1 1:2 2:3 3:5"/>
    </vehicle>
    <vehicle id="147" depart="58.80">
        <route edges="19:18 18:3 3:2 2:1 1:0 0:4"/>
    </vehicle>
    <vehicle id="149" depart="59.60">
        <route edges="9:8 8:0 0:1 1:2 2:3 3:18 18:19"/>
    </vehicle>
    <vehicle id="151" depart="60.40">
        <route edges="6:4 4:0 0:1 1:2 2:3 3:18 18:19"/>
    </vehicle>
    <vehicle id="152" depart="60.80">
        <route edges="7:5 5:3 3:2 2:1 1:12 12:13"/>
    </vehicle>
    <vehicle id="153" depart="61.20">
        <route edges="7:5 5:3 3:2 2:1 1:0 0:4"/>
    </vehicle>
    <vehicle id="154" depart="61.60">
        <route edges="7:5 5:3 3:2 2:1 1:0 0:4 4:6"/>
    </vehicle>
    <vehicle id="156" depart="62.40">
        <route edges="10:0 0:1 1:2 2:3"/>
    </vehicle>
    <vehicle id="157" depart="62.80">
        <route edges="17:16 16:3 3:18"/>
    </vehicle>
    <vehicle id="158" depart="63.20">
        <route edges="4:0 0:1 1:2 2:3 3:5"/>
    </vehicle>
    <vehicle id="159" depart="63.60">
        <route edges="7:5 5:3 3:2 2:1 1:0 0:4 4:6"/>
    </vehicle>
    <vehicle id="162" depart="64.80">
        <route edges="19:18 18:3 3:16 16:17"/>
    </vehicle>
    <vehicle id="169" depart="67.60">
        <route edges="17:16 16:3 3:2"/>
    </vehicle>
    <vehicle id="170" depart="68.00">
        <route edges="7:5 5:3 3:2 2:14 14:15"/>
    </vehicle>
    <vehicle id="176" depart="70.40">
        <route edges="14:2 2:1"/>
    </vehicle>
    <vehicle id="177" depart="70.80">
        <route edges="15:14 14:2 2:1 1:0 0:8 8:9"/>
    </vehicle>
    <vehicle id="179" depart="71.60">
        <route edges="11:10 10:0 0:1 1:2 2:14 14:15"/>
    </vehicle>
    <vehicle id="182" depart="72.80">
        <route edges="6:4 4:0 0:8 8:9"/>
    </vehicle>
    <vehicle id="183" depart="73.20">
        <route edges="13:12 12:1 1:2 2:3 3:5"/>
    </vehicle>
    <vehicle id="185" depart="74.00">
        <route edges="7:5 5:3 3:2 2:1 1:12 12:13"/>
    </vehicle>
    <vehicle id="188" depart="75.20">
        <route edges="4:0 0:1 1:2 2:3 3:5 5:7"/>
    </vehicle>
    <vehicle id="190" depart="76.00">
        <route edges="7:5 5:3 3:2 2:14"/>
    </vehicle>
    <vehicle id="191" depart="76.40">
        <route edges="3:2 2:14 14:15"/>
    </vehicle>
    <vehicle id="192" depart="76.80">
        <route edges="11:10 10:0 0:1 1:2 2:3 3:5 5:7"/>
    </vehicle>
    <vehicle id="194" depart="77.60">
        <route edges="5:3 3:2 2:1 1:0 0:8"/>
    </vehicle>
    <vehicle id="196" depart="78.40">
        <route edges="2:3 3:5"/>
    </vehicle>
    <vehicle id="201" depart="80.40">
        <route edges="7:5 5:3 3:2 2:1 1:12 12:13"/>
    </vehicle>
    <vehicle id="202" depart="80.80">
        <route edges="17:16 16:3 3:2 2:1 1:0 0:4 4:6"/>
    </vehicle>
    <vehicle id="205" depart="82.00">
        <route edges="7:5 5:3 3:2 2:14 14:15"/>
    </vehicle>
    <vehicle id="211" depart="84.40">
        <route edges="17:16 16:3 3:2 2:1 1:0 0:4 4:6"/>
    </vehicle>
    <vehicle id="212" depart="84.80">
        <route edges="11:10 10:0 0:1 1:2 2:3 3:5 5:7"/>
    </vehicle>
    <vehicle id="218" depart="87.20">
        <route edges="1:2"/>
    </vehicle>
    <vehicle id="224" depart="89.60">
        <route edges="7:5 5:3 3:2 2:1 1:0 0:8 8:9"/>
    </vehicle>
    <vehicle id="225" depart="90.00">
        <route edges="2:3 3:16 16:17"/>
    </vehicle>
    <vehicle id="226" depart="90.40">
        <route edges="6:4 4:0 0:1 1:2 2:3 3:5 5:7"/>
    </vehicle>
    <vehicle id="227" depart="90.80">
        <route edges="13:12 12:1 1:2 2:14 14:15"/>
    </vehicle>
    <vehicle id="228" depart="91.20">
        <route edges="19:18 18:3 3:2 2:14 14:15"/>
    </vehicle>
    <vehicle id="231" depart="92.40">
        <route edges="15:14 14:2 2:3 3:5"/>
    </vehicle>
    <vehicle id="232" depart="92.80">
        <route edges="15:14 14:2 2:1 1:0 0:4 4:6"/>
    </vehicle>
    <vehicle id="233" depart="93.20">
        <route edges="6:4 4:0 0:1 1:2 2:3 3:18 18:19"/>
    </vehicle>
    <vehicle id="234" depart="93.60">
        <route edges="7:5 5:3 3:2 2:14 14:15"/>
    </vehicle>
    <vehicle id="235" depart="94.00">
        <route edges="4:0 0:1 1:2"/>
    </vehicle>
    <vehicle id="236" depart="94.40">
        <route edges="6:4 4:0 0:10 10:11"/>
    </vehicle>
    <vehicle id="237" depart="94.80">
        <route edges="13:12 12:1 1:2 2:3 3:5"/>
    </vehicle>
    <vehicle id="241" depart="96.40">
        <route edges="11:10 10:0 0:1 1:2 2:3"/>
    </vehicle>
    <vehicle id="245" depart="98.00">
        <route edges="4:0 0:1 1:12"/>
    </vehicle>
    <vehicle id="249" depart="99.60">
        <route edges="15:14 14:2 2:1 1:0 0:4"/>
    </vehicle>
    <vehicle id="250" depart="100.00">
        <route edges="11:10 10:0 0:1 1:2 2:3 3:5 5:7"/>
    </vehicle>
    <vehicle id="251" depart="100.40">
        <route edges="13:12 12:1 1:0 0:10 10:11"/>
    </vehicle>
    <vehicle id="252" depart="100.80">
        <route edges="19:18 18:3 3:2 2:1 1:0 0:4 4:6"/>
    </vehicle>
    <vehicle id="254" depart="101.60">
        <route edges="6:4 4:0"/>
    </vehicle>
    <vehicle id="257" depart="102.80">
        <route edges="7:5 5:3 3:2 2:14"/>
    </vehicle>
    <vehicle id="259" depart="103.60">
        <route edges="4:0 0:1 1:2 2:3 3:5 5:7"/>
    </vehicle>
    <vehicle id="260" depart="104.00">
        <route edges="17:16 16:3 3:2 2:1 1:0 0:8"/>
    </vehicle>
    <vehicle id="262" depart="104.80">
        <route edges="1:0 0:4 4:6"/>
    </vehicle>
    <vehicle id="266" depart="106.40">
        <route edges="11:10 10:0 0:1 1:2 2:3 3:5 5:7"/>
    </vehicle>
    <vehicle id="272" depart="108.80">
        <route edges="15:14 14:2 2:1 1:0 0:4"/>
    </vehicle>
    <vehicle id="274" depart="109.60">
        <route edges="13:12 12:1 1:2 2:14 14:15"/>
    </vehicle>
    <vehicle id="276" depart="110.40">
        <route edges="18:3 3:5 5:7"/>
    </vehicle>
    <vehicle id="277" depart="110.80">
        <route edges="6:4 4:0 0:1 1:2 2:3 3:16"/>
    </vehicle>
    <vehicle id="278" depart="111.20">
        <route edges="19:18 18:3 3:2 2:1 1:0 0:8 8:9"/>
    </vehicle>
    <vehicle id="279" depart="111.60">
        <route edges="5:3 3:2"/>
    </vehicle>
    <vehicle id="282" depart="112.80">
        <route edges="7:5 5:3 3:16 16:17"/>
    </vehicle>
    <vehicle id="283" depart="113.20">
        <route edges="6:4 4:0 0:1 1:2 2:14 14:15"/>
    </vehicle>
    <vehicle id="286" depart="114.40">
        <route edges="6:4 4:0 0:10 10:11"/>
    </vehicle>
    <vehicle id="287" depart="114.80">
        <route edges="12:1 1:2 2:3"/>
    </vehicle>
    <vehicle id="288" depart="115.20">
        <route edges="18:3 3:16 16:17"/>
    </vehicle>
    <vehicle id="289" depart="115.60">
        <route edges="15:14 14:2 2:1 1:0 0:4"/>
    </vehicle>
    <vehicle id="291" depart="116.40">
        <route edges="3:2 2:14 14:15"/>
    </vehicle>
    <vehicle id="292" depart="116.80">
        <route edges="7:5 5:3 3:16 16:17"/>
    </vehicle>
    <vehicle id="293" depart="117.20">
        <route edges="17:16 16:3 3:5 5:7"/>
    </vehicle>
    <vehicle id="294" depart="117.60">
        <route edges="5:3 3:2 2:1 1:0 0:4"/>
    </vehicle>
    <vehicle id="295" depart="118.00">
        <route edges="5:3 3:16 16:17"/>
    </vehicle>
    <vehicle id="296" depart="118.40">
        <route edges="17:16 16:3 3:2 2:1 1:0"/>
    </vehicle>
    <vehicle id="298" depart="119.20">
        <route edges="7:5 5:3 3:16 16:17"/>
    </vehicle>
    <vehicle id="299" depart="119.60">
        <route edges="11:10 10:0 0:1 1:2 2:3 3:5 5:7"/>
    </vehicle>
    <vehicle id="301" depart="120.40">
        <route edges="10:0 0:4 4:6"/>
    </vehicle>
    <vehicle id="302" depart="120.80">
        <route edges="9:8 8:0 0:1 1:2 2:14"/>
    </vehicle>
    <vehicle id="303" depart="121.20">
        <route edges="4:0 0:1 1:2 2:3 3:5 5:7"/>
    </vehicle>
    <vehicle id="305" depart="122.00">
        <route edges="7:5 5:3 3:2 2:1 1:0 0:4 4:6"/>
    </vehicle>
    <vehicle id="306" depart="122.40">
        <route edges="9:8 8:0 0:10 10:11"/>
    </vehicle>
    <vehicle id="308" depart="123.20">
        <route edges="5:3 3:2 2:1 1:12"/>
    </vehicle>
    <vehicle id="310" depart="124.00">
        <route edges="9:8 8:0 0:10 10:11"/>
    </vehicle>
    <vehicle id="314" depart="125.60">
        <route edges="15:14 14:2 2:3 3:18 18:19"/>
    </vehicle>
    <vehicle id="316" depart="126.40">
        <route edges="17:16 16:3 3:2 2:1 1:0 0:4 4:6"/>
    </vehicle>
    <vehicle id="317" depart="126.80">
        <route edges="2:3 3:5 5:7"/>
    </vehicle>
    <vehicle id="318" depart="127.20">
        <route edges="7:5 5:3 3:2 2:1 1:0 0:8 8:9"/>
    </vehicle>
    <vehicle id="319" depart="127.60">
        <route edges="19:18 18:3 3:2 2:1 1:0 0:8 8:9"/>
    </vehicle>
    <vehicle id="320" depart="128.00">
        <route edges="3:2 2:1"/>
    </vehicle>
    <vehicle id="321" depart="128.40">
        <route edges="11:10 10:0 0:4 4:6"/>
    </vehicle>
    <vehicle id="323" depart="129.20">
        <route edges="9:8 8:0 0:1 1:12 12:13"/>
    </vehicle>
    <vehicle id="324" depart="129.60">
        <route edges="7:5 5:3 3:2 2:1 1:0 0:10 10:11"/>
    </vehicle>
    <vehicle id="325" depart="130.00">
        <route edges="7:5 5:3 3:2 2:1 1:0 0:4"/>
    </vehicle>
    <vehicle id="327" depart="130.80">
        <route edges="6:4 4:0 0:1 1:12"/>
    </vehicle>
    <vehicle id="331" depart="132.40">
        <route edges="3:18 18:19"/>
    </vehicle>
    <vehicle id="333" depart="133.20">
        <route edges="19:18 18:3 3:2 2:14 14:15"/>
    </vehicle>
    <vehicle id="334" depart="133.60">
        <route edges="10:0 0:4 4:6"/>
    </vehicle>
    <vehicle id="335" depart="134.00">
        <route edges="9:8 8:0 0:1 1:12 12:13"/>
    </vehicle>
    <vehicle id="336" depart="134.40">
        <route edges="6:4 4:0 0:1 1:2 2:14 14:15"/>
    </vehicle>
    <vehicle id="338" depart="135.20">
        <route edges="11:10 10:0 0:4"/>
    </vehicle>
    <vehicle id="339" depart="135.60">
        <route edges="18:3 3:2 2:1 1:0 0:8 8:9"/>
    </vehicle>
    <vehicle id="340" depart="136.00">
        <route edges="11:10 10:0 0:1 1:2 2:14"/>
    </vehicle>
    <vehicle id="342" depart="136.80">
        <route edges="5:3 3:2 2:1 1:0 0:4"/>
    </vehicle>
    <vehicle id="344" depart="137.60">
        <route edges="18:3"/>
    </vehicle>
    <vehicle id="345" depart="138.00">
        <route edges="17:16 16:3 3:2 2:1 1:0 0:4"/>
    </vehicle>
    <vehicle id="347" depart="138.80">
        <route edges="16:3 3:2 2:1 1:0 0:4"/>
    </vehicle>
    <vehicle id="348" depart="139.20">
        <route edges="7:5 5:3 3:16 16:17"/>
    </vehicle>
    <vehicle id="349" depart="139.60">
        <route edges="15:14 14:2 2:3"/>
    </vehicle>
    <vehicle id="350" depart="140.00">
        <route edges="9:8 8:0 0:1 1:12 12:13"/>
    </vehicle>
    <vehicle id="351" depart="140.40">
        <route edges="3:5 5:7"/>
    </vehicle>
    <vehicle id="357" depart="142.80">
        <route edges="6:4 4:0 0:1 1:12 12:13"/>
    </vehicle>
    <vehicle id="359" depart="143.60">
        <route edges="9:8 8:0"/>
    </vehicle>
    <vehicle id="360" depart="144.00">
        <route edges="6:4 4:0 0:1 1:12 12:13"/>
    </vehicle>
    <vehicle id="362" depart="144.80">
        <route edges="7:5 5:3 3:2 2:1 1:0 0:4"/>
    </vehicle>
    <vehicle id="363" depart="145.20">
        <route edges="0:1 1:12"/>
    </vehicle>
    <vehicle id="368" depart="147.20">
        <route edges="8:0 0:1 1:2 2:3"/>
    </vehicle>
    <vehicle id="369" depart="147.60">
        <route edges="5:3 3:2 2:14 14:15"/>
    </vehicle>
    <vehicle id="370" depart="148.00">
        <route edges="10:0 0:1 1:2 2:3"/>
    </vehicle>
    <vehicle id="371" depart="148.40">
        <route edges="7:5 5:3 3:2 2:1 1:0 0:10 10:11"/>
    </vehicle>
    <vehicle id="373" depart="149.20">
        <route edges="6:4 4:0 0:1 1:2 2:3 3:18 18:19"/>
    </vehicle>
    <vehicle id="377" depart="150.80">
        <route edges="11:10 10:0 0:1 1:2 2:3 3:5 5:7"/>
    </vehicle>
    <vehicle id="378" depart="151.20">
        <route edges="6:4 4:0 0:1 1:2 2:3 3:16 16:17"/>
    </vehicle>
    <vehicle id="380" depart="152.00">
        <route edges="0:1 1:2 2:3 3:18 18:19"/>
    </vehicle>
    <vehicle id="384" depart="153.60">
        <route edges="19:18 18:3 3:2 2:1 1:0"/>
    </vehicle>
    <vehicle id="387" depart="154.80">
        <route edges="12:1 1:2 2:3 3:5 5:7"/>
    </vehicle>
    <vehicle id="388" depart="155.20">
        <route edges="19:18 18:3 3:2 2:14 14:15"/>
    </vehicle>
    <vehicle id="391" depart="156.40">
        <route edges="5:3 3:2 2:14 14:15"/>
    </vehicle>
    <vehicle id="392" depart="156.80">
        <route edges="3:2 2:1 1:0 0:10 10:11"/>
    </vehicle>
    <vehicle id="393" depart="157.20">
        <route edges="17:16 16:3 3:2 2:1 1:0 0:10 10:11"/>
    </vehicle>
    <vehicle id="394" depart="157.60">
        <route edges="14:2 2:3 3:18 18:19"/>
    </vehicle>
    <vehicle id="396" depart="158.40">
        <route edges="13:12 12:1 1:0 0:4 4:6"/>
    </vehicle>
    <vehicle id="397" depart="158.80">
        <route edges="13:12 12:1 1:2 2:3 3:18"/>
    </vehicle>
    <vehicle id="401" depart="160.40">
        <route edges="19:18 18:3 3:16 16:17"/>
    </vehicle>
    <vehicle id="402" depart="160.80">
        <route edges="19:18 18:3 3:2 2:1 1:0 0:8 8:9"/>
    </vehicle>
    <vehicle id="404" depart="161.60">
        <route edges="7:5 5:3 3:2 2:14 14:15"/>
    </vehicle>
    <vehicle id="406" depart="162.40">
        <route edges="3:2 2:14 14:15"/>
    </vehicle>
    <vehicle id="407" depart="162.80">
        <route edges="15:14 14:2 2:3 3:5 5:7"/>
    </vehicle>
    <vehicle id="410" depart="164.00">
        <route edges="18:3 3:5 5:7"/>
    </vehicle>
    <vehicle id="411" depart="164.40">
        <route edges="7:5 5:3 3:2 2:1 1:0 0:10 10:11"/>
    </vehicle>
    <vehicle id="417" depart="166.80">
        <route edges="13:12 12:1 1:2 2:14 14:15"/>
    </vehicle>
    <vehicle id="420" depart="168.00">
        <route edges="6:4 4:0 0:1 1:2 2:3 3:18"/>
    </vehicle>
    <vehicle id="421" depart="168.40">
        <route edges="9:8 8:0 0:1 1:2 2:3 3:5 5:7"/>
    </vehicle>
    <vehicle id="424" depart="169.60">
        <route edges="11:10 10:0 0:1 1:2 2:3"/>
    </vehicle>
    <vehicle id="426" depart="170.40">
        <route edges="0:1 1:12 12:13"/>
    </vehicle>
    <vehicle id="428" depart="171.20">
        <route edges="12:1 1:0 0:4 4:6"/>
    </vehicle>
    <vehicle id="429" depart="171.60">
        <route edges="17:16 16:3 3:18"/>
    </vehicle>
    <vehicle id="430" depart="172.00">
        <route edges="1:2 2:14"/>
    </vehicle>
    <vehicle id="431" depart="172.40">
        <route edges="15:14 14:2 2:3"/>
    </vehicle>
    <vehicle id="433" depart="173.20">
        <route edges="7:5 5:3 3:2"/>
    </vehicle>
    <vehicle id="434" depart="173.60">
        <route edges="12:1 1:0 0:10 10:11"/>
    </vehicle>
    <vehicle id="435" depart="174.00">
        <route edges="7:5 5:3 3:18"/>
    </vehicle>
    <vehicle id="436" depart="174.40">
        <route edges="5:3 3:2 2:1 1:0 0:4 4:6"/>
    </vehicle>
    <vehicle id="437" depart="174.80">
        <route edges="15:14 14:2 2:1 1:0 0:8 8:9"/>
    </vehicle>
    <vehicle id="439" depart="175.60">
        <route edges="13:12 12:1 1:0 0:8 8:9"/>
    </vehicle>
    <vehicle id="444" depart="177.60">
        <route edges="6:4 4:0 0:1 1:2 2:3"/>
    </vehicle>
    <vehicle id="447" depart="178.80">
        <route edges="19:18 18:3 3:2 2:14 14:15"/>
    </vehicle>
    <vehicle id="448" depart="179.20">
        <route edges="17:16 16:3 3:2 2:1 1:0 0:4 4:6"/>
    </vehicle>
    <vehicle id="449" depart="179.60">
        <route edges="6:4 4:0 0:1 1:2 2:14 14:15"/>
    </vehicle>
    <vehicle id="451" depart="180.40">
        <route edges="6:4 4:0 0:1 1:2 2:3 3:5 5:7"/>
    </vehicle>
    <vehicle id="454" depart="181.60">
        <route edges="0:1 1:2 2:3 3:5 5:7"/>
    </vehicle>
    <vehicle id="455" depart="182.00">
        <route edges="6:4 4:0 0:1 1:12 12:13"/>
    </vehicle>
    <vehicle id="457" depart="182.80">
        <route edges="7:5 5:3 3:16 16:17"/>
    </vehicle>
    <vehicle id="458" depart="183.20">
        <route edges="11:10 10:0 0:8 8:9"/>
    </vehicle>
    <vehicle id="459" depart="183.60">
        <route edges="10:0 0:1 1:2"/>
    </vehicle>
    <vehicle id="460" depart="184.00">
        <route edges="9:8 8:0 0:1 1:2 2:3 3:5 5:7"/>
    </vehicle>
    <vehicle id="463" depart="185.20">
        <route edges="9:8 8:0 0:1 1:2 2:14 14:15"/>
    </vehicle>
    <vehicle id="465" depart="186.00">
        <route edges="19:18 18:3 3:5 5:7"/>
    </vehicle>
    <vehicle id="466" depart="186.40">
        <route edges="2:14"/>
    </vehicle>
    <vehicle id="470" depart="188.00">
        <route edges="7:5 5:3 3:16 16:17"/>
    </vehicle>
    <vehicle id="473" depart="189.20">
        <route edges="3:2 2:1 1:12"/>
    </vehicle>
    <vehicle id="474" depart="189.60">
        <route edges="6:4 4:0 0:1 1:12"/>
    </vehicle>
    <vehicle id="475" depart="190.00">
        <route edges="7:5 5:3 3:2 2:1 1:0 0:4 4:6"/>
    </vehicle>
    <vehicle id="476" depart="190.40">
        <route edges="1:12"/>
    </vehicle>
    <vehicle id="477" depart="190.80">
        <route edges="17:16 16:3 3:5"/>
    </vehicle>
    <vehicle id="482" depart="192.80">
        <route edges="9:8 8:0 0:1 1:2 2:3 3:18 18:19"/>
    </vehicle>
    <vehicle id="484" depart="193.60">
        <route edges="5:3 3:2 2:1 1:0 0:8"/>
    </vehicle>
    <vehicle id="490" depart="196.00">
        <route edges="19:18 18:3 3:2"/>
    </vehicle>
    <vehicle id="491" depart="196.40">
        <route edges="6:4 4:0 0:1 1:2 2:3"/>
    </vehicle>
    <vehicle id="492" depart="196.80">
        <route edges="7:5 5:3 3:2 2:1 1:12"/>
    </vehicle>
    <vehicle id="496" depart="198.40">
        <route edges="10:0 0:1 1:2 2:3 3:5 5:7"/>
    </vehicle>
    <vehicle id="497" depart="198.80">
        <route edges="15:14 14:2 2:1 1:0 0:4 4:6"/>
    </vehicle>
    <vehicle id="498" depart="199.20">
        <route edges="5:3 3:2 2:1 1:0 0:10 10:11"/>
    </vehicle>
    <vehicle id="501" depart="200.40">
        <route edges="0:1 1:2 2:3 3:18 18:19"/>
    </vehicle>
    <vehicle id="502" depart="200.80">
        <route edges="1:2 2:3 3:18"/>
    </vehicle>
    <vehicle id="503" depart="201.20">
        <route edges="7:5 5:3 3:2 2:1 1:0 0:4 4:6"/>
    </vehicle>
    <vehicle id="505" depart="202.00">
        <route edges="11:10 10:0 0:1 1:12 12:13"/>
    </vehicle>
    <vehicle id="506" depart="202.40">
        <route edges="2:1 1:0 0:10 10:11"/>
    </vehicle>
    <vehicle id="509" depart="203.60">
        <route edges="17:16 16:3 3:2 2:1 1:12 12:13"/>
    </vehicle>
    <vehicle id="511" depart="204.40">
        <route edges="11:10 10:0 0:1 1:2 2:3 3:5 5:7"/>
    </vehicle>
    <vehicle id="513" depart="205.20">
        <route edges="0:1 1:2 2:3 3:16 16:17"/>
    </vehicle>
    <vehicle id="519" depart="207.60">
        <route edges="19:18 18:3 3:2 2:1"/>
    </vehicle>
    <vehicle id="521" depart="208.40">
        <route edges="13:12 12:1 1:0 0:10 10:11"/>
    </vehicle>
    <vehicle id="522" depart="208.80">
        <route edges="11:10 10:0 0:8 8:9"/>
    </vehicle>
    <vehicle id="525" depart="210.00">
        <route edges="15:14 14:2 2:1 1:12"/>
    </vehicle>
    <vehicle id="528" depart="211.20">
        <route edges="13:12 12:1 1:2 2:3 3:5 5:7"/>
    </vehicle>
    <vehicle id="529" depart="211.60">
        <route edges="11:10 10:0 0:1 1:12 12:13"/>
    </vehicle>
    <vehicle id="532" depart="212.80">
        <route edges="6:4 4:0 0:1 1:2 2:3 3:5 5:7"/>
    </vehicle>
    <vehicle id="533" depart="213.20">
        <route edges="14:2 2:3 3:16 16:17"/>
    </vehicle>
    <vehicle id="534" depart="213.60">
        <route edges="17:16 16:3 3:18 18:19"/>
    </vehicle>
    <vehicle id="535" depart="214.00">
        <route edges="6:4 4:0 0:10 10:11"/>
    </vehicle>
    <vehicle id="539" depart="215.60">
        <route edges="3:2 2:14 14:15"/>
    </vehicle>
    <vehicle id="540" depart="216.00">
        <route edges="4:0 0:1 1:12 12:13"/>
    </vehicle>
    <vehicle id="544" depart="217.60">
        <route edges="19:18 18:3 3:2 2:1 1:0 0:10 10:11"/>
    </vehicle>
    <vehicle id="547" depart="218.80">
        <route edges="4:0 0:8 8:9"/>
    </vehicle>
    <vehicle id="549" depart="219.60">
        <route edges="19:18 18:3 3:2 2:14 14:15"/>
    </vehicle>
    <vehicle id="550" depart="220.00">
        <route edges="3:2 2:1 1:0 0:4 4:6"/>
    </vehicle>
    <vehicle id="551" depart="220.40">
        <route edges="7:5 5:3 3:2 2:1 1:0 0:4 4:6"/>
    </vehicle>
    <vehicle id="552" depart="220.80">
        <route edges="2:1 1:0 0:10 10:11"/>
    </vehicle>
    <vehicle id="553" depart="221.20">
        <route edges="0:4 4:6"/>
    </vehicle>
    <vehicle id="556" depart="222.40">
        <route edges="3:2 2:1 1:0 0:4 4:6"/>
    </vehicle>
    <vehicle id="557" depart="222.80">
        <route edges="1:12 12:13"/>
    </vehicle>
    <vehicle id="558" depart="223.20">
        <route edges="9:8 8:0 0:1 1:2 2:3 3:5 5:7"/>
    </vehicle>
    <vehicle id="560" depart="224.00">
        <route edges="4:0 0:1 1:2 2:3 3:5 5:7"/>
    </vehicle>
    <vehicle id="561" depart="224.40">
        <route edges="6:4 4:0 0:8 8:9"/>
    </vehicle>
    <vehicle id="562" depart="224.80">