<?xml version="1.0" encoding="UTF-8"?>

<!-- generated on Thu Oct 23 22:34:54 2014 by SUMO duarouter Version 0.18.0
<?xml version="1.0" encoding="UTF-8"?>

<configuration xmlns:xsi="http://www.w3.org/2001/XMLSchema-instance" xsi:noNamespaceSchemaLocation="http://sumo.sf.net/xsd/duarouterConfiguration.xsd">

    <input>
        <net-file value="corridor.net.xml"/>
        <trip-files value="experimentos/corridor.p1.0.10.trips.xml"/>
    </input>

    <output>
        <output-file value="experimentos/corridor.p1.0.10.rou.xml"/>
    </output>

    <processing>
        <ignore-errors value="true"/>
    </processing>

    <random_number>
        <random value="true"/>
    </random_number>

</configuration>
-->

<routes xmlns:xsi="http://www.w3.org/2001/XMLSchema-instance" xsi:noNamespaceSchemaLocation="http://sumo.sf.net/xsd/routes_file.xsd">
    <vehicle id="0" depart="0.00">
        <route edges="3:2 2:1 1:12 12:13"/>
    </vehicle>
    <vehicle id="2" depart="2.00">
        <route edges="19:18 18:3 3:2 2:1 1:0"/>
    </vehicle>
    <vehicle id="3" depart="3.00">
        <route edges="9:8 8:0 0:1 1:2 2:3 3:5"/>
    </vehicle>
    <vehicle id="4" depart="4.00">
        <route edges="15:14 14:2 2:3"/>
    </vehicle>
    <vehicle id="6" depart="6.00">
        <route edges="6:4 4:0 0:8 8:9"/>
    </vehicle>
    <vehicle id="8" depart="8.00">
        <route edges="6:4 4:0 0:1 1:2 2:14 14:15"/>
    </vehicle>
    <vehicle id="10" depart="10.00">
        <route edges="17:16 16:3 3:5"/>
    </vehicle>
    <vehicle id="13" depart="13.00">
        <route edges="3:2 2:1 1:12 12:13"/>
    </vehicle>
    <vehicle id="14" depart="14.00">
        <route edges="13:12 12:1 1:2 2:3"/>
    </vehicle>
    <vehicle id="15" depart="15.00">
        <route edges="3:2 2:1 1:12 12:13"/>
    </vehicle>
    <vehicle id="18" depart="18.00">
        <route edges="1:2 2:3"/>
    </vehicle>
    <vehicle id="19" depart="19.00">
        <route edges="0:1 1:2 2:3 3:5 5:7"/>
    </vehicle>
    <vehicle id="21" depart="21.00">
        <route edges="13:12 12:1"/>
    </vehicle>
    <vehicle id="22" depart="22.00">
        <route edges="3:5 5:7"/>
    </vehicle>
    <vehicle id="25" depart="25.00">
        <route edges="15:14 14:2 2:1 1:0 0:8 8:9"/>
    </vehicle>
    <vehicle id="27" depart="27.00">
        <route edges="9:8 8:0 0:4 4:6"/>
    </vehicle>
    <vehicle id="30" depart="30.00">
        <route edges="3:2 2:1 1:0 0:4"/>
    </vehicle>
    <vehicle id="32" depart="32.00">
        <route edges="7:5 5:3 3:2 2:1 1:0 0:4 4:6"/>
    </vehicle>
    <vehicle id="34" depart="34.00">
        <route edges="5:3 3:2 2:1 1:0 0:10 10:11"/>
    </vehicle>
    <vehicle id="36" depart="36.00">
        <route edges="13:12 12:1 1:2 2:3 3:5"/>
    </vehicle>
    <vehicle id="37" depart="37.00">
        <route edges="6:4 4:0 0:1 1:2 2:14 14:15"/>
    </vehicle>
    <vehicle id="38" depart="38.00">
        <route edges="15:14 14:2 2:3"/>
    </vehicle>
    <vehicle id="40" depart="40.00">
        <route edges="16:3 3:2 2:1 1:12 12:13"/>
    </vehicle>
    <vehicle id="41" depart="41.00">
        <route edges="12:1 1:2"/>
    </vehicle>
    <vehicle id="42" depart="42.00">
        <route edges="9:8 8:0 0:1 1:2"/>
    </vehicle>
    <vehicle id="43" depart="43.00">
        <route edges="7:5 5:3 3:18 18:19"/>
    </vehicle>
    <vehicle id="45" depart="45.00">
        <route edges="7:5 5:3 3:2 2:1 1:0"/>
    </vehicle>
    <vehicle id="46" depart="46.00">
        <route edges="6:4 4:0 0:1"/>
    </vehicle>
    <vehicle id="47" depart="47.00">
        <route edges="7:5 5:3 3:2 2:1 1:0 0:8 8:9"/>
    </vehicle>
    <vehicle id="48" depart="48.00">
        <route edges="17:16 16:3 3:2 2:1 1:0 0:4 4:6"/>
    </vehicle>
    <vehicle id="52" depart="52.00">
        <route edges="5:3 3:2 2:1 1:0 0:4 4:6"/>
    </vehicle>
    <vehicle id="55" depart="55.00">
        <route edges="17:16 16:3 3:2 2:1 1:0 0:4 4:6"/>
    </vehicle>
    <vehicle id="56" depart="56.00">
        <route edges="2:3 3:16 16:17"/>
    </vehicle>
    <vehicle id="58" depart="58.00">
        <route edges="2:3 3:5 5:7"/>
    </vehicle>
    <vehicle id="61" depart="61.00">
        <route edges="15:14 14:2 2:1 1:0 0:8 8:9"/>
    </vehicle>
    <vehicle id="62" depart="62.00">
        <route edges="3:2 2:1 1:0 0:10"/>
    </vehicle>
    <vehicle id="63" depart="63.00">
        <route edges="6:4 4:0 0:1 1:2 2:14"/>
    </vehicle>
    <vehicle id="65" depart="65.00">
        <route edges="7:5 5:3 3:2 2:1 1:12 12:13"/>
    </vehicle>
    <vehicle id="68" depart="68.00">
        <route edges="17:16 16:3 3:2 2:1 1:0 0:4 4:6"/>
    </vehicle>
    <vehicle id="69" depart="69.00">
        <route edges="12:1 1:0 0:4 4:6"/>
    </vehicle>
    <vehicle id="72" depart="72.00">
        <route edges="9:8 8:0 0:4 4:6"/>
    </vehicle>
    <vehicle id="75" depart="75.00">
        <route edges="9:8 8:0 0:4 4:6"/>
    </vehicle>
    <vehicle id="76" depart="76.00">
        <route edges="6:4 4:0"/>
    </vehicle>
    <vehicle id="77" depart="77.00">
        <route edges="9:8 8:0 0:1 1:12 12:13"/>
    </vehicle>
    <vehicle id="80" depart="80.00">
        <route edges="6:4 4:0 0:1 1:2 2:3 3:16"/>
    </vehicle>
    <vehicle id="82" depart="82.00">
        <route edges="16:3 3:2 2:14 14:15"/>
    </vehicle>
    <vehicle id="85" depart="85.00">
        <route edges="3:2 2:1 1:0"/>
    </vehicle>
    <vehicle id="88" depart="88.00">
        <route edges="11:10 10:0 0:1 1:2 2:3 3:18 18:19"/>
    </vehicle>
    <vehicle id="89" depart="89.00">
        <route edges="19:18 18:3 3:2 2:14"/>
    </vehicle>
    <vehicle id="91" depart="91.00">
        <route edges="3:2 2:1 1:12 12:13"/>
    </vehicle>
    <vehicle id="92" depart="92.00">
        <route edges="7:5 5:3"/>
    </vehicle>
    <vehicle id="93" depart="93.00">
        <route edges="7:5 5:3 3:2 2:1 1:12 12:13"/>
    </vehicle>
    <vehicle id="95" depart="95.00">
        <route edges="2:3 3:5"/>
    </vehicle>
    <vehicle id="96" depart="96.00">
        <route edges="17:16 16:3 3:2 2:1 1:0 0:8"/>
    </vehicle>
    <vehicle id="98" depart="98.00">
        <route edges="9:8 8:0 0:1 1:2 2:14"/>
    </vehicle>
    <vehicle id="100" depart="100.00">
        <route edges="15:14 14:2 2:1 1:0 0:4"/>
    </vehicle>
    <vehicle id="101" depart="101.00">
        <route edges="6:4 4:0 0:1 1:2"/>
    </vehicle>
    <vehicle id="105" depart="105.00">
        <route edges="11:10 10:0 0:1 1:2 2:3 3:5 5:7"/>
    </vehicle>
    <vehicle id="106" depart="106.00">
        <route edges="17:16 16:3 3:5 5:7"/>
    </vehicle>
    <vehicle id="108" depart="108.00">
        <route edges="3:5 5:7"/>
    </vehicle>
    <vehicle id="110" depart="110.00">
        <route edges="7:5 5:3 3:16"/>
    </vehicle>
    <vehicle id="111" depart="111.00">
        <route edges="14:2 2:3 3:5"/>
    </vehicle>
    <vehicle id="113" depart="113.00">
        <route edges="6:4 4:0 0:1 1:2 2:3 3:18 18:19"/>
    </vehicle>
    <vehicle id="116" depart="116.00">
        <route edges="19:18 18:3 3:2 2:1 1:0 0:4"/>
    </vehicle>
    <vehicle id="118" depart="118.00">
        <route edges="15:14 14:2 2:3 3:18"/>
    </vehicle>
    <vehicle id="120" depart="120.00">
        <route edges="6:4 4:0 0:1 1:2 2:3 3:18 18:19"/>
    </vehicle>
    <vehicle id="122" depart="122.00">
        <route edges="13:12 12:1 1:2 2:3 3:16"/>
    </vehicle>
    <vehicle id="123" depart="123.00">
        <route edges="11:10 10:0 0:4 4:6"/>
    </vehicle>
    <vehicle id="124" depart="124.00">
        <route edges="6:4 4:0 0:1 1:2 2:3 3:16 16:17"/>
    </vehicle>
    <vehicle id="125" depart="125.00">
        <route edges="19:18 18:3 3:16"/>
    </vehicle>
    <vehicle id="126" depart="126.00">
        <route edges="9:8 8:0 0:4 4:6"/>
    </vehicle>
    <vehicle id="127" depart="127.00">
        <route edges="6:4 4:0 0:1 1:2 2:3 3:18"/>
    </vehicle>
    <vehicle id="128" depart="128.00">
        <route edges="19:18 18:3 3:2 2:1 1:0 0:8 8:9"/>
    </vehicle>
    <vehicle id="131" depart="131.00">
        <route edges="7:5 5:3 3:2 2:1 1:0 0:4 4:6"/>
    </vehicle>
    <vehicle id="133" depart="133.00">
        <route edges="7:5 5:3 3:18"/>
    </vehicle>
    <vehicle id="135" depart="135.00">
        <route edges="12:1 1:2 2:3 3:18 18:19"/>
    </vehicle>
    <vehicle id="136" depart="136.00">
        <route edges="15:14 14:2 2:3 3:18 18:19"/>
    </vehicle>
    <vehicle id="138" depart="138.00">
        <route edges="19:18 18:3 3:16 16:17"/>
    </vehicle>
    <vehicle id="140" depart="140.00">
        <route edges="13:12 12:1 1:2 2:3 3:18"/>
    </vehicle>
    <vehicle id="142" depart="142.00">
        <route edges="14:2 2:3 3:5 5:7"/>
    </vehicle>
    <vehicle id="143" depart="143.00">
        <route edges="11:10 10:0 0:1 1:2 2:3"/>
    </vehicle>
    <vehicle id="144" depart="144.00">
        <route edges="8:0 0:10"/>
    </vehicle>
    <vehicle id="146" depart="146.00">
        <route edges="6:4 4:0 0:1 1:2 2:3 3:18 18:19"/>
    </vehicle>
    <vehicle id="151" depart="151.00">
        <route edges="13:12 12:1 1:2 2:3 3:5"/>
    </vehicle>
    <vehicle id="152" depart="152.00">
        <route edges="9:8 8:0 0:1 1:2 2:14 14:15"/>
    </vehicle>
    <vehicle id="153" depart="153.00">
        <route edges="8:0 0:1 1:2 2:3"/>
    </vehicle>
    <vehicle id="155" depart="155.00">
        <route edges="17:16 16:3 3:2 2:14 14:15"/>
    </vehicle>
    <vehicle id="156" depart="156.00">
        <route edges="3:2 2:1 1:0 0:4 4:6"/>
    </vehicle>
    <vehicle id="158" depart="158.00">
        <route edges="6:4 4:0 0:1 1:2 2:14 14:15"/>
    </vehicle>
    <vehicle id="161" depart="161.00">
        <route edges="4:0 0:1 1:2 2:14 14:15"/>
    </vehicle>
    <vehicle id="162" depart="162.00">
        <route edges="9:8 8:0 0:1 1:2 2:3 3:5"/>
    </vehicle>
    <vehicle id="164" depart="164.00">
        <route edges="7:5 5:3 3:2 2:1 1:0 0:4 4:6"/>
    </vehicle>
    <vehicle id="168" depart="168.00">
        <route edges="7:5 5:3"/>
    </vehicle>
    <vehicle id="169" depart="169.00">
        <route edges="19:18 18:3 3:2 2:14 14:15"/>
    </vehicle>
    <vehicle id="171" depart="171.00">
        <route edges="15:14 14:2 2:1 1:0 0:8 8:9"/>
    </vehicle>
    <vehicle id="172" depart="172.00">
        <route edges="6:4 4:0 0:1 1:2 2:3 3:18"/>
    </vehicle>
    <vehicle id="173" depart="173.00">
        <route edges="3:2 2:1 1:0 0:10 10:11"/>
    </vehicle>
    <vehicle id="174" depart="174.00">
        <route edges="11:10 10:0 0:1 1:2 2:14"/>
    </vehicle>
    <vehicle id="177" depart="177.00">
        <route edges="7:5 5:3 3:2 2:1 1:0 0:4 4:6"/>
    </vehicle>
    <vehicle id="178" depart="178.00">
        <route edges="2:1 1:0 0:10 10:11"/>
    </vehicle>
    <vehicle id="180" depart="180.00">
        <route edges="12:1 1:0 0:10"/>
    </vehicle>
    <vehicle id="182" depart="182.00">
        <route edges="6:4 4:0 0:1 1:2 2:3 3:16 16:17"/>
    </vehicle>
    <vehicle id="183" depart="183.00">
        <route edges="1:0 0:4 4:6"/>
    </vehicle>
    <vehicle id="184" depart="184.00">
        <route edges="5:3 3:2 2:1 1:0 0:4 4:6"/>
    </vehicle>
    <vehicle id="186" depart="186.00">
        <route edges="10:0 0:1 1:2 2:3 3:5 5:7"/>
    </vehicle>
    <vehicle id="188" depart="188.00">
        <route edges="9:8 8:0 0:1"/>
    </vehicle>
    <vehicle id="189" depart="189.00">
        <route edges="6:4 4:0 0:1 1:2"/>
    </vehicle>
    <vehicle id="191" depart="191.00">
        <route edges="13:12 12:1 1:2 2:3 3:5 5:7"/>
    </vehicle>
    <vehicle id="192" depart="192.00">
        <route edges="15:14 14:2"/>
    </vehicle>
    <vehicle id="193" depart="193.00">
        <route edges="9:8 8:0 0:1 1:2 2:3 3:5"/>
    </vehicle>
    <vehicle id="197" depart="197.00">
        <route edges="11:10 10:0 0:4 4:6"/>
    </vehicle>
    <vehicle id="199" depart="199.00">
        <route edges="15:14 14:2 2:3 3:5 5:7"/>
    </vehicle>
    <vehicle id="200" depart="200.00">
        <route edges="9:8 8:0 0:1 1:2 2:3 3:18"/>
    </vehicle>
    <vehicle id="202" depart="202.00">
        <route edges="5:3 3:16 16:17"/>
    </vehicle>
    <vehicle id="206" depart="206.00">
        <route edges="2:3 3:5 5:7"/>
    </vehicle>
    <vehicle id="209" depart="209.00">
        <route edges="2:3 3:5 5:7"/>
    </vehicle>
    <vehicle id="210" depart="210.00">
        <route edges="7:5 5:3 3:2"/>
    </vehicle>
    <vehicle id="211" depart="211.00">
        <route edges="11:10 10:0 0:1 1:2 2:3 3:16 16:17"/>
    </vehicle>
    <vehicle id="213" depart="213.00">
        <route edges="6:4 4:0 0:10 10:11"/>
    </vehicle>
    <vehicle id="215" depart="215.00">
        <route edges="16:3 3:2 2:1 1:0 0:4 4:6"/>
    </vehicle>
    <vehicle id="218" depart="218.00">
        <route edges="19:18 18:3 3:2 2:1 1:0 0:4"/>
    </vehicle>
    <vehicle id="220" depart="220.00">
        <route edges="4:0 0:1 1:2 2:3 3:18"/>
    </vehicle>
    <vehicle id="222" depart="222.00">
        <route edges="4:0 0:1 1:2 2:3 3:5 5:7"/>
    </vehicle>
    <vehicle id="223" depart="223.00">
        <route edges="5:3 3:2 2:1 1:0 0:10 10:11"/>
    </vehicle>
    <vehicle id="224" depart="224.00">
        <route edges="6:4 4:0 0:10"/>
    </vehicle>
    <vehicle id="225" depart="225.00">
        <route edges="15:14 14:2 2:1 1:12 12:13"/>
    </vehicle>
    <vehicle id="226" depart="226.00">
        <route edges="14:2 2:3"/>
    </vehicle>
    <vehicle id="227" depart="227.00">
        <route edges="5:3 3:2 2:1 1:0"/>
    </vehicle>
    <vehicle id="229" depart="229.00">
        <route edges="15:14 14:2 2:3 3:16 16:17"/>
    </vehicle>
    <vehicle id="232" depart="232.00">
        <route edges="15:14 14:2 2:1 1:0 0:10"/>
    </vehicle>
    <vehicle id="234" depart="234.00">
        <route edges="3:2 2:1 1:0 0:4 4:6"/>
    </vehicle>
    <vehicle id="235" depart="235.00">
        <route edges="13:12 12:1 1:0 0:10 10:11"/>
    </vehicle>
    <vehicle id="236" depart="236.00">
        <route edges="2:3 3:5"/>
    </vehicle>
    <vehicle id="237" depart="237.00">
        <route edges="6:4 4:0 0:8"/>
    </vehicle>
    <vehicle id="238" depart="238.00">
        <route edges="4:0 0:8 8:9"/>
    </vehicle>
    <vehicle id="239" depart="239.00">
        <route edges="9:8 8:0 0:1 1:2 2:3 3:18 18:19"/>
    </vehicle>
    <vehicle id="241" depart="241.00">
        <route edges="6:4 4:0 0:1 1:2"/>
    </vehicle>
    <vehicle id="243" depart="243.00">
        <route edges="18:3 3:2 2:1 1:0 0:8 8:9"/>
    </vehicle>
    <vehicle id="244" depart="244.00">
        <route edges="15:14 14:2 2:3 3:5"/>
    </vehicle>
    <vehicle id="247" depart="247.00">
        <route edges="7:5 5:3 3:2 2:1 1:0"/>
    </vehicle>
    <vehicle id="249" depart="249.00">
        <route edges="5:3 3:2 2:1 1:0 0:4 4:6"/>
    </vehicle>
    <vehicle id="254" depart="254.00">
        <route edges="7:5 5:3 3:16 16:17"/>
    </vehicle>
    <vehicle id="255" depart="255.00">
        <route edges="13:12 12:1 1:2 2:3 3:5 5:7"/>
    </vehicle>
    <vehicle id="256" depart="256.00">
        <route edges="3:2 2:1 1:0 0:4 4:6"/>
    </vehicle>
    <vehicle id="257" depart="257.00">
        <route edges="9:8 8:0 0:1 1:2 2:3 3:18 18:19"/>
    </vehicle>
    <vehicle id="264" depart="264.00">
        <route edges="9:8 8:0 0:1 1:2 2:3 3:5 5:7"/>
    </vehicle>
    <vehicle id="271" depart="271.00">
        <route edges="6:4 4:0 0:10 10:11"/>
    </vehicle>
    <vehicle id="273" depart="273.00">
        <route edges="19:18 18:3 3:2 2:1 1:0 0:4"/>
    </vehicle>
    <vehicle id="274" depart="274.00">
        <route edges="3:2 2:1 1:0"/>
    </vehicle>
    <vehicle id="275" depart="275.00">
        <route edges="6:4 4:0 0:10 10:11"/>
    </vehicle>
    <vehicle id="276" depart="276.00">
        <route edges="14:2 2:1 1:0 0:10 10:11"/>
    </vehicle>
    <vehicle id="277" depart="277.00">
        <route edges="11:10 10:0 0:1 1:2 2:3 3:5"/>
    </vehicle>
    <vehicle id="280" depart="280.00">
        <route edges="19:18 18:3 3:2 2:1 1:0 0:4 4:6"/>
    </vehicle>
    <vehicle id="282" depart="282.00">
        <route edges="5:3 3:2 2:14 14:15"/>
    </vehicle>
    <vehicle id="284" depart="284.00">
        <route edges="2:3"/>
    </vehicle>
    <vehicle id="285" depart="285.00">
        <route edges="2:3 3:5 5:7"/>
    </vehicle>
    <vehicle id="286" depart="286.00">
        <route edges="3:2 2:1 1:0 0:8 8:9"/>
    </vehicle>
    <vehicle id="287" depart="287.00">
        <route edges="6:4 4:0 0:1 1:2 2:3 3:5 5:7"/>
    </vehicle>
    <vehicle id="289" depart="289.00">
        <route edges="19:18 18:3 3:5 5:7"/>
    </vehicle>
    <vehicle id="292" depart="292.00">
        <route edges="15:14 14:2 2:3 3:5 5:7"/>
    </vehicle>
    <vehicle id="294" depart="294.00">
        <route edges="15:14 14:2 2:3 3:18 18:19"/>
    </vehicle>
    <vehicle id="295" depart="295.00">
        <route edges="15:14 14:2 2:3 3:5 5:7"/>
    </vehicle>
    <vehicle id="298" depart="298.00">
        <route edges="5:3 3:16"/>
    </vehicle>
    <vehicle id="299" depart="299.00">
        <route edges="19:18 18:3 3:5"/>
    </vehicle>
    <vehicle id="301" depart="301.00">
        <route edges="3:2 2:1 1:0 0:8 8:9"/>
    </vehicle>
    <vehicle id="302" depart="302.00">
        <route edges="11:10 10:0 0:1 1:2 2:3 3:5 5:7"/>
    </vehicle>
    <vehicle id="303" depart="303.00">
        <route edges="7:5 5:3 3:2 2:14 14:15"/>
    </vehicle>
    <vehicle id="305" depart="305.00">
        <route edges="3:2 2:1 1:0 0:8 8:9"/>
    </vehicle>
    <vehicle id="306" depart="306.00">
        <route edges="1:12 12:13"/>
    </vehicle>
    <vehicle id="307" depart="307.00">
        <route edges="15:14 14:2 2:1 1:0 0:8 8:9"/>
    </vehicle>
    <vehicle id="308" depart="308.00">
        <route edges="1:0 0:8 8:9"/>
    </vehicle>
    <vehicle id="311" depart="311.00">
        <route edges="10:0 0:1 1:2 2:3 3:5 5:7"/>
    </vehicle>
    <vehicle id="312" depart="312.00">
        <route edges="8:0 0:1 1:12 12:13"/>
    </vehicle>
    <vehicle id="313" depart="313.00">
        <route edges="7:5 5:3 3:2 2:1 1:12"/>
    </vehicle>
    <vehicle id="314" depart="314.00">
        <route edges="8:0 0:1 1:2 2:3 3:5"/>
    </vehicle>
    <vehicle id="316" depart="316.00">
        <route edges="19:18 18:3 3:2 2:1 1:0 0:8 8:9"/>
    </vehicle>
    <vehicle id="317" depart="317.00">
        <route edges="6:4 4:0 0:1 1:2 2:3 3:18 18:19"/>
    </vehicle>
    <vehicle id="318" depart="318.00">
        <route edges="11:10 10:0 0:4"/>
    </vehicle>
    <vehicle id="321" depart="321.00">
        <route edges="14:2 2:1 1:0 0:8 8:9"/>
    </vehicle>
    <vehicle id="323" depart="323.00">
        <route edges="3:5"/>
    </vehicle>
    <vehicle id="324" depart="324.00">
        <route edges="6:4 4:0 0:1 1:2 2:14 14:15"/>
    </vehicle>
    <vehicle id="326" depart="326.00">
        <route edges="7:5 5:3 3:2 2:1 1:0 0:8"/>
    </vehicle>
    <vehicle id="327" depart="327.00">
        <route edges="7:5 5:3 3:2 2:1 1:0 0:10 10:11"/>
    </vehicle>
    <vehicle id="328" depart="328.00">
        <route edges="4:0 0:1 1:2 2:3 3:5 5:7"/>
    </vehicle>
    <vehicle id="329" depart="329.00">
        <route edges="7:5 5:3 3:2 2:1 1:0 0:4 4:6"/>
    </vehicle>
    <vehicle id="330" depart="330.00">
        <route edges="19:18 18:3 3:5 5:7"/>
    </vehicle>
    <vehicle id="331" depart="331.00">
        <route edges="7:5 5:3 3:16"/>
    </vehicle>
    <vehicle id="333" depart="333.00">
        <route edges="7:5 5:3 3:2"/>
    </vehicle>
    <vehicle id="334" depart="334.00">
        <route edges="17:16 16:3 3:18"/>
    </vehicle>
    <vehicle id="337" depart="337.00">
        <route edges="13:12 12:1 1:2 2:3 3:16 16:17"/>
    </vehicle>
    <vehicle id="338" depart="338.00">
        <route edges="2:3 3:16 16:17"/>
    </vehicle>
    <vehicle id="341" depart="341.00">
        <route edges="15:14 14:2 2:3 3:5 5:7"/>
    </vehicle>
    <vehicle id="345" depart="345.00">
        <route edges="6:4 4:0 0:10 10:11"/>
    </vehicle>
    <vehicle id="347" depart="347.00">
        <route edges="10:0 0:1 1:2 2:3 3:5 5:7"/>
    </vehicle>
    <vehicle id="349" depart="349.00">
        <route edges="14:2 2:3 3:5 5:7"/>
    </vehicle>
    <vehicle id="351" depart="351.00">
        <route edges="7:5 5:3 3:16 16:17"/>
    </vehicle>
    <vehicle id="353" depart="353.00">
        <route edges="10:0 0:1 1:2 2:3 3:5 5:7"/>
    </vehicle>
    <vehicle id="355" depart="355.00">
        <route edges="9:8 8:0 0:1 1:2 2:14 14:15"/>
    </vehicle>
    <vehicle id="356" depart="356.00">
        <route edges="11:10 10:0 0:1 1:2 2:3 3:5 5:7"/>
    </vehicle>
    <vehicle id="357" depart="357.00">
        <route edges="6:4 4:0 0:1 1:2"/>
    </vehicle>
    <vehicle id="360" depart="360.00">
        <route edges="5:3 3:2 2:1 1:0 0:4"/>
    </vehicle>
    <vehicle id="363" depart="363.00">
        <route edges="9:8 8:0 0:4 4:6"/>
    </vehicle>
    <vehicle id="366" depart="366.00">
        <route edges="18:3 3:2 2:14 14:15"/>
    </vehicle>
    <vehicle id="368" depart="368.00">
        <route edges="7:5 5:3 3:2 2:1 1:0 0:10 10:11"/>
    </vehicle>
    <vehicle id="370" depart="370.00">
        <route edges="12:1 1:2"/>
    </vehicle>
    <vehicle id="374" depart="374.00">
        <route edges="19:18 18:3 3:2"/>
    </vehicle>
    <vehicle id="375" depart="375.00">
        <route edges="19:18 18:3 3:2 2:1 1:0 0:4 4:6"/>
    </vehicle>
    <vehicle id="378" depart="378.00">
        <route edges="13:12 12:1 1:2 2:3 3:16 16:17"/>
    </vehicle>
    <vehicle id="382" depart="382.00">
        <route edges="8:0 0:1 1:2 2:3 3:5 5:7"/>
    </vehicle>
    <vehicle id="394" depart="394.00">
        <route edges="6:4 4:0 0:10 10:11"/>
    </vehicle>
    <vehicle id="397" depart="397.00">
        <route edges="13:12 12:1 1:0"/>
    </vehicle>
    <vehicle id="398" depart="398.00">
        <route edges="3:5"/>
    </vehicle>
    <vehicle id="399" depart="399.00">
        <route edges="9:8 8:0 0:1 1:2 2:3 3:16 16:17"/>
    </vehicle>
    <vehicle id="403" depart="403.00">
        <route edges="2:3 3:18 18:19"/>
    </vehicle>
    <vehicle id="405" depart="405.00">
        <route edges="11:10 10:0 0:4 4:6"/>
    </vehicle>
    <vehicle id="406" depart="406.00">
        <route edges="13:12 12:1 1:2 2:3 3:18 18:19"/>
    </vehicle>
    <vehicle id="407" depart="407.00">
        <route edges="0:1 1:12 12:13"/>
    </vehicle>
    <vehicle id="408" depart="408.00">
        <route edges="10:0 0:8"/>
    </vehicle>
    <vehicle id="415" depart="415.00">
        <route edges="4:0 0:1"/>
    </vehicle>
    <vehicle id="417" depart="417.00">
        <route edges="13:12 12:1 1:2 2:3 3:5 5:7"/>
    </vehicle>
    <vehicle id="419" depart="419.00">
        <route edges="19:18 18:3 3:2 2:14"/>
    </vehicle>
    <vehicle id="420" depart="420.00">
        <route edges="11:10 10:0 0:1"/>
    </vehicle>
    <vehicle id="423" depart="423.00">
        <route edges="10:0 0:1 1:12 12:13"/>
    </vehicle>
    <vehicle id="424" depart="424.00">
        <route edges="9:8 8:0 0:4"/>
    </vehicle>
    <vehicle id="431" depart="431.00">
        <route edges="6:4 4:0 0:1 1:2 2:3 3:5 5:7"/>
    </vehicle>
    <vehicle id="432" depart="432.00">
        <route edges="9:8 8:0 0:1 1:2 2:3 3:16 16:17"/>
    </vehicle>
    <vehicle id="433" depart="433.00">
        <route edges="7:5 5:3 3:2 2:1 1:0 0:10"/>
    </vehicle>
    <vehicle id="434" depart="434.00">
        <route edges="19:18 18:3 3:2 2:1 1:0 0:4 4:6"/>
    </vehicle>
    <vehicle id="435" depart="435.00">
        <route edges="4:0 0:8 8:9"/>
    </vehicle>
    <vehicle id="436" depart="436.00">
        <route edges="15:14 14:2 2:1 1:0"/>
    </vehicle>
    <vehicle id="438" depart="438.00">
        <route edges="17:16 16:3 3:2 2:14 14:15"/>
    </vehicle>
    <vehicle id="442" depart="442.00">
        <route edges="4:0 0:10 10:11"/>
    </vehicle>
    <vehicle id="444" depart="444.00">
        <route edges="4:0 0:1 1:12 12:13"/>
    </vehicle>
    <vehicle id="445" depart="445.00">
        <route edges="17:16 16:3 3:18"/>
    </vehicle>
    <vehicle id="446" depart="446.00">
        <route edges="6:4 4:0 0:1"/>
    </vehicle>
    <vehicle id="448" depart="448.00">
        <route edges="13:12 12:1 1:2 2:14"/>
    </vehicle>
    <vehicle id="450" depart="450.00">
        <route edges="10:0 0:4 4:6"/>
    </vehicle>
    <vehicle id="451" depart="451.00">
        <route edges="3:2 2:1 1:0 0:4 4:6"/>
    </vehicle>
    <vehicle id="453" depart="453.00">
        <route edges="17:16 16:3 3:2 2:1 1:0 0:4 4:6"/>
    </vehicle>
    <vehicle id="454" depart="454.00">
        <route edges="18:3 3:2 2:1 1:0 0:4"/>
    </vehicle>
    <vehicle id="457" depart="457.00">
        <route edges="13:12 12:1 1:2 2:3 3:16 16:17"/>
    </vehicle>
    <vehicle id="458" depart="458.00">
        <route edges="19:18 18:3 3:2 2:1 1:0 0:8 8:9"/>
    </vehicle>
    <vehicle id="459" depart="459.00">
        <route edges="17:16 16:3 3:2"/>
    </vehicle>
    <vehicle id="460" depart="460.00">
        <route edges="19:18 18:3"/>
    </vehicle>
    <vehicle id="461" depart="461.00">
        <route edges="4:0 0:1 1:2 2:3 3:5 5:7"/>
    </vehicle>
    <vehicle id="464" depart="464.00">
        <route edges="9:8 8:0 0:1 1:12 12:13"/>
    </vehicle>
    <vehicle id="465" depart="465.00">
        <route edges="4:0 0:1 1:2 2:3"/>
    </vehicle>
    <vehicle id="466" depart="466.00">
        <route edges="13:12 12:1 1:2 2:3 3:5"/>
    </vehicle>
    <vehicle id="471" depart="471.00">
        <route edges="7:5 5:3 3:16 16:17"/>
    </vehicle>
    <vehicle id="473" depart="473.00">
        <route edges="5:3 3:2 2:14 14:15"/>
    </vehicle>
    <vehicle id="475" depart="475.00">
        <route edges="9:8 8:0 0:1 1:2 2:3"/>
    </vehicle>
    <vehicle id="477" depart="477.00">
        <route edges="9:8 8:0 0:1 1:2 2:3 3:18 18:19"/>
    </vehicle>
    <vehicle id="478" depart="478.00">
        <route edges="7:5 5:3 3:2 2:1 1:0 0:4 4:6"/>
    </vehicle>
    <vehicle id="479" depart="479.00">
        <route edges="12:1 1:2 2:3 3:5"/>
    </vehicle>
    <vehicle id="480" depart="480.00">
        <route edges="15:14 14:2 2:3 3:16 16:17"/>
    </vehicle>
    <vehicle id="481" depart="481.00">
        <route edges="7:5 5:3"/>
    </vehicle>
    <vehicle id="482" depart="482.00">
        <route edges="7:5 5:3 3:2 2:1 1:0"/>
    </vehicle>
    <vehicle id="483" depart="483.00">
        <route edges="0:1 1:12"/>
    </vehicle>
    <vehicle id="484" depart="484.00">
        <route edges="7:5 5:3 3:2 2:1 1:0 0:4 4:6"/>
    </vehicle>
    <vehicle id="488" depart="488.00">
        <route edges="0:1 1:12 12:13"/>
    </vehicle>
    <vehicle id="491" depart="491.00">
        <route edges="6:4 4:0 0:1 1:2 2:3 3:18"/>
    </vehicle>
    <vehicle id="493" depart="493.00">
        <route edges="11:10 10:0 0:1 1:2 2:3 3:5 5:7"/>
    </vehicle>
    <vehicle id="494" depart="494.00">
        <route edges="15:14 14:2 2:3 3:18 18:19"/>
    </vehicle>
    <vehicle id="495" depart="495.00">
        <route edges="13:12 12:1"/>
    </vehicle>
    <vehicle id="496" depart="496.00">
        <route edges="0:8 8:9"/>
    </vehicle>
    <vehicle id="497" depart="497.00">
        <route edges="19:18 18:3 3:16 16:17"/>
    </vehicle>
    <vehicle id="498" depart="498.00">
        <route edges="19:18 18:3 3:5 5:7"/>
    </vehicle>
    <vehicle id="499" depart="499.00">
        <route edges="11:10 10:0 0:1 1:2 2:3 3:5"/>
    </vehicle>
    <vehicle id="501" depart="501.00">
        <route edges="5:3 3:18 18:19"/>
    </vehicle>
    <vehicle id="504" depart="504.00">
        <route edges="7:5 5:3 3:2 2:14 14:15"/>
    </vehicle>
    <vehicle id="506" depart="506.00">
        <route edges="13:12 12:1 1:2 2:3 3:5 5:7"/>
    </vehicle>
    <vehicle id="509" depart="509.00">
        <route edges="7:5 5:3 3:2 2:1 1:12 12:13"/>
    </vehicle>
    <vehicle id="510" depart="510.00">
        <route edges="6:4 4:0 0:1 1:2 2:3 3:5"/>
    </vehicle>
    <vehicle id="515" depart="515.00">
        <route edges="5:3 3:18"/>
    </vehicle>
    <vehicle id="517" depart="517.00">
        <route edges="0:1 1:2 2:14 14:15"/>
    </vehicle>
    <vehicle id="518" depart="518.00">
        <route edges="6:4 4:0 0:1 1:2 2:3"/>
    </vehicle>
    <vehicle id="519" depart="519.00">
        <route edges="9:8 8:0 0:1"/>
    </vehicle>
    <vehicle id="521" depart="521.00">
        <route edges="0:4"/>
    </vehicle>
    <vehicle id="522" depart="522.00">
        <route edges="2:14 14:15"/>
    </vehicle>
    <vehicle id="524" depart="524.00">
        <route edges="16:3 3:2"/>
    </vehicle>
    <vehicle id="525" depart="525.00">
        <route edges="1:2 2:14 14:15"/>
    </vehicle>
    <vehicle id="527" depart="527.00">
        <route edges="15:14 14:2 2:3"/>
    </vehicle>
    <vehicle id="528" depart="528.00">
        <route edges="6:4 4:0 0:1 1:2 2:3 3:5 5:7"/>
    </vehicle>
    <vehicle id="529" depart="529.00">
        <route edges="2:1 1:0 0:8 8:9"/>
    </vehicle>
    <vehicle id="536" depart="536.00">
        <route edges="1:12 12:13"/>
    </vehicle>
    <vehicle id="537" depart="537.00">
        <route edges="19:18 18:3 3:16 16:17"/>
    </vehicle>
    <vehicle id="538" depart="538.00">
        <route edges="16:3 3:2 2:14"/>
    </vehicle>
    <vehicle id="539" depart="539.00">
        <route edges="7:5 5:3 3:2 2:1 1:0 0:10 10:11"/>
    </vehicle>
    <vehicle id="542" depart="542.00">
        <route edges="17:16 16:3 3:2 2:1 1:0 0:4"/>
    </vehicle>
    <vehicle id="544" depart="544.00">
        <route edges="18:3 3:2"/>
    </vehicle>
    <vehicle id="546" depart="546.00">
        <route edges="6:4 4:0 0:1 1:12 12:13"/>
    </vehicle>
    <vehicle id="551" depart="551.00">
        <route edges="17:16 16:3 3:2 2:1 1:0 0:4"/>
    </vehicle>
    <vehicle id="552" depart="552.00">
        <route edges="8:0 0:1 1:2 2:3 3:5"/>
    </vehicle>
    <vehicle id="560" depart="560.00">
        <route edges="7:5 5:3 3:16 16:17"/>
    </vehicle>