<?xml version="1.0" encoding="UTF-8"?>

<!-- generated on Thu Oct 23 22:33:30 2014 by SUMO duarouter Version 0.18.0
<?xml version="1.0" encoding="UTF-8"?>

<configuration xmlns:xsi="http://www.w3.org/2001/XMLSchema-instance" xsi:noNamespaceSchemaLocation="http://sumo.sf.net/xsd/duarouterConfiguration.xsd">

    <input>
        <net-file value="corridor.net.xml"/>
        <trip-files value="experimentos/corridor.p0.1.5.trips.xml"/>
    </input>

    <output>
        <output-file value="experimentos/corridor.p0.1.5.rou.xml"/>
    </output>

    <processing>
        <ignore-errors value="true"/>
    </processing>

    <random_number>
        <random value="true"/>
    </random_number>

</configuration>
-->

<routes xmlns:xsi="http://www.w3.org/2001/XMLSchema-instance" xsi:noNamespaceSchemaLocation="http://sumo.sf.net/xsd/routes_file.xsd">
    <vehicle id="0" depart="0.00">
        <route edges="4:0 0:1 1:2 2:3 3:5"/>
    </vehicle>
    <vehicle id="2" depart="0.20">
        <route edges="13:12 12:1 1:2 2:14 14:15"/>
    </vehicle>
    <vehicle id="3" depart="0.30">
        <route edges="6:4 4:0 0:10 10:11"/>
    </vehicle>
    <vehicle id="5" depart="0.50">
        <route edges="0:1 1:2"/>
    </vehicle>
    <vehicle id="11" depart="1.10">
        <route edges="5:3 3:18 18:19"/>
    </vehicle>
    <vehicle id="12" depart="1.20">
        <route edges="6:4 4:0 0:1 1:2 2:3 3:5 5:7"/>
    </vehicle>
    <vehicle id="13" depart="1.30">
        <route edges="2:3 3:5 5:7"/>
    </vehicle>
    <vehicle id="14" depart="1.40">
        <route edges="11:10 10:0 0:1 1:12"/>
    </vehicle>
    <vehicle id="15" depart="1.50">
        <route edges="13:12 12:1 1:0 0:4 4:6"/>
    </vehicle>
    <vehicle id="19" depart="1.90">
        <route edges="3:5"/>
    </vehicle>
    <vehicle id="22" depart="2.20">
        <route edges="4:0 0:8 8:9"/>
    </vehicle>
    <vehicle id="23" depart="2.30">
        <route edges="9:8 8:0 0:1 1:2 2:3"/>
    </vehicle>
    <vehicle id="24" depart="2.40">
        <route edges="13:12 12:1 1:2 2:3 3:5 5:7"/>
    </vehicle>
    <vehicle id="27" depart="2.70">
        <route edges="6:4 4:0 0:1 1:2"/>
    </vehicle>
    <vehicle id="29" depart="2.90">
        <route edges="19:18 18:3 3:5 5:7"/>
    </vehicle>
    <vehicle id="30" depart="3.00">
        <route edges="12:1 1:0 0:10"/>
    </vehicle>
    <vehicle id="31" depart="3.10">
        <route edges="1:2 2:3 3:18 18:19"/>
    </vehicle>
    <vehicle id="32" depart="3.20">
        <route edges="17:16 16:3 3:18 18:19"/>
    </vehicle>
    <vehicle id="34" depart="3.40">
        <route edges="11:10 10:0 0:1 1:2 2:3 3:5"/>
    </vehicle>
    <vehicle id="42" depart="4.20">
        <route edges="19:18 18:3 3:2 2:1 1:0 0:4"/>
    </vehicle>
    <vehicle id="44" depart="4.40">
        <route edges="12:1 1:2 2:3 3:16 16:17"/>
    </vehicle>
    <vehicle id="46" depart="4.60">
        <route edges="1:0 0:4"/>
    </vehicle>
    <vehicle id="48" depart="4.80">
        <route edges="1:0 0:10 10:11"/>
    </vehicle>
    <vehicle id="51" depart="5.10">
        <route edges="5:3 3:2"/>
    </vehicle>
    <vehicle id="52" depart="5.20">
        <route edges="18:3"/>
    </vehicle>
    <vehicle id="53" depart="5.30">
        <route edges="19:18 18:3 3:16 16:17"/>
    </vehicle>
    <vehicle id="55" depart="5.50">
        <route edges="4:0 0:10"/>
    </vehicle>
    <vehicle id="57" depart="5.70">
        <route edges="11:10 10:0 0:4 4:6"/>
    </vehicle>
    <vehicle id="58" depart="5.80">
        <route edges="6:4 4:0 0:1 1:2 2:3 3:18 18:19"/>
    </vehicle>
    <vehicle id="59" depart="5.90">
        <route edges="15:14 14:2 2:3"/>
    </vehicle>
    <vehicle id="60" depart="6.00">
        <route edges="6:4 4:0 0:1 1:2 2:3 3:16 16:17"/>
    </vehicle>
    <vehicle id="62" depart="6.20">
        <route edges="15:14 14:2 2:1 1:0"/>
    </vehicle>
    <vehicle id="63" depart="6.30">
        <route edges="13:12 12:1 1:0 0:4 4:6"/>
    </vehicle>
    <vehicle id="64" depart="6.40">
        <route edges="13:12 12:1 1:2 2:14"/>
    </vehicle>
    <vehicle id="65" depart="6.50">
        <route edges="13:12 12:1 1:0"/>
    </vehicle>
    <vehicle id="66" depart="6.60">
        <route edges="6:4 4:0 0:8 8:9"/>
    </vehicle>
    <vehicle id="67" depart="6.70">
        <route edges="11:10 10:0 0:1 1:12 12:13"/>
    </vehicle>
    <vehicle id="69" depart="6.90">
        <route edges="5:3 3:2 2:1 1:0 0:4 4:6"/>
    </vehicle>
    <vehicle id="70" depart="7.00">
        <route edges="2:3 3:5 5:7"/>
    </vehicle>
    <vehicle id="72" depart="7.20">
        <route edges="18:3 3:2 2:1 1:12 12:13"/>
    </vehicle>
    <vehicle id="75" depart="7.50">
        <route edges="10:0 0:8"/>
    </vehicle>
    <vehicle id="79" depart="7.90">
        <route edges="19:18 18:3 3:16"/>
    </vehicle>
    <vehicle id="80" depart="8.00">
        <route edges="0:1 1:2 2:3 3:5 5:7"/>
    </vehicle>
    <vehicle id="81" depart="8.10">
        <route edges="17:16 16:3 3:2 2:1 1:0 0:4"/>
    </vehicle>
    <vehicle id="84" depart="8.40">
        <route edges="14:2 2:3 3:18 18:19"/>
    </vehicle>
    <vehicle id="87" depart="8.70">
        <route edges="6:4 4:0"/>
    </vehicle>
    <vehicle id="88" depart="8.80">
        <route edges="13:12 12:1 1:2 2:3 3:18 18:19"/>
    </vehicle>
    <vehicle id="90" depart="9.00">
        <route edges="5:3 3:18 18:19"/>
    </vehicle>
    <vehicle id="92" depart="9.20">
        <route edges="2:1 1:0 0:4 4:6"/>
    </vehicle>
    <vehicle id="93" depart="9.30">
        <route edges="19:18 18:3 3:2 2:1 1:0 0:10 10:11"/>
    </vehicle>
    <vehicle id="95" depart="9.50">
        <route edges="13:12 12:1 1:2 2:3"/>
    </vehicle>
    <vehicle id="96" depart="9.60">
        <route edges="6:4 4:0 0:1 1:2 2:3 3:5 5:7"/>
    </vehicle>
    <vehicle id="97" depart="9.70">
        <route edges="19:18 18:3 3:16 16:17"/>
    </vehicle>
    <vehicle id="100" depart="10.00">
        <route edges="11:10 10:0 0:4"/>
    </vehicle>
    <vehicle id="102" depart="10.20">
        <route edges="13:12 12:1 1:0 0:10 10:11"/>
    </vehicle>
    <vehicle id="103" depart="10.30">
        <route edges="9:8 8:0 0:1 1:2 2:3"/>
    </vehicle>
    <vehicle id="105" depart="10.50">
        <route edges="3:2 2:1 1:0 0:8"/>
    </vehicle>
    <vehicle id="107" depart="10.70">
        <route edges="9:8 8:0 0:1 1:2 2:3 3:5"/>
    </vehicle>
    <vehicle id="109" depart="10.90">
        <route edges="9:8 8:0 0:1 1:2 2:3 3:16"/>
    </vehicle>
    <vehicle id="112" depart="11.20">
        <route edges="6:4 4:0 0:1 1:2 2:3 3:18"/>
    </vehicle>
    <vehicle id="114" depart="11.40">
        <route edges="9:8 8:0 0:1 1:2 2:3 3:5 5:7"/>
    </vehicle>
    <vehicle id="116" depart="11.60">
        <route edges="19:18 18:3 3:2 2:1 1:12"/>
    </vehicle>
    <vehicle id="118" depart="11.80">
        <route edges="11:10 10:0 0:1"/>
    </vehicle>
    <vehicle id="120" depart="12.00">
        <route edges="15:14 14:2 2:1 1:0 0:4"/>
    </vehicle>
    <vehicle id="121" depart="12.10">
        <route edges="7:5 5:3 3:2 2:1 1:0 0:8 8:9"/>
    </vehicle>
    <vehicle id="123" depart="12.30">
        <route edges="9:8 8:0 0:1 1:2 2:3 3:5 5:7"/>
    </vehicle>
    <vehicle id="124" depart="12.40">
        <route edges="1:2"/>
    </vehicle>
    <vehicle id="126" depart="12.60">
        <route edges="7:5 5:3 3:18 18:19"/>
    </vehicle>
    <vehicle id="128" depart="12.80">
        <route edges="6:4 4:0 0:8"/>
    </vehicle>
    <vehicle id="131" depart="13.10">
        <route edges="3:5 5:7"/>
    </vehicle>
    <vehicle id="132" depart="13.20">
        <route edges="6:4 4:0 0:1 1:2 2:3 3:5 5:7"/>
    </vehicle>
    <vehicle id="133" depart="13.30">
        <route edges="4:0 0:1 1:2 2:3 3:5 5:7"/>
    </vehicle>
    <vehicle id="135" depart="13.50">
        <route edges="12:1 1:0 0:8"/>
    </vehicle>
    <vehicle id="136" depart="13.60">
        <route edges="4:0 0:10 10:11"/>
    </vehicle>
    <vehicle id="137" depart="13.70">
        <route edges="5:3 3:2 2:1 1:12 12:13"/>
    </vehicle>
    <vehicle id="139" depart="13.90">
        <route edges="15:14 14:2 2:3 3:18 18:19"/>
    </vehicle>
    <vehicle id="142" depart="14.20">
        <route edges="16:3 3:2 2:1 1:0 0:4 4:6"/>
    </vehicle>
    <vehicle id="143" depart="14.30">
        <route edges="6:4 4:0 0:1 1:2 2:3 3:16 16:17"/>
    </vehicle>
    <vehicle id="147" depart="14.70">
        <route edges="11:10 10:0 0:1 1:12"/>
    </vehicle>
    <vehicle id="150" depart="15.00">
        <route edges="15:14 14:2 2:3 3:16 16:17"/>
    </vehicle>
    <vehicle id="152" depart="15.20">
        <route edges="0:4"/>
    </vehicle>
    <vehicle id="153" depart="15.30">
        <route edges="13:12 12:1 1:2 2:3 3:5"/>
    </vehicle>
    <vehicle id="156" depart="15.60">
        <route edges="19:18 18:3 3:2 2:1 1:0 0:4 4:6"/>
    </vehicle>
    <vehicle id="159" depart="15.90">
        <route edges="19:18 18:3 3:2 2:1 1:0"/>
    </vehicle>
    <vehicle id="160" depart="16.00">
        <route edges="7:5 5:3 3:2 2:1 1:12 12:13"/>
    </vehicle>
    <vehicle id="161" depart="16.10">
        <route edges="13:12 12:1 1:2 2:14 14:15"/>
    </vehicle>
    <vehicle id="163" depart="16.30">
        <route edges="8:0 0:1 1:2 2:3"/>
    </vehicle>
    <vehicle id="167" depart="16.70">
        <route edges="15:14 14:2 2:1 1:0 0:4 4:6"/>
    </vehicle>
    <vehicle id="169" depart="16.90">
        <route edges="5:3 3:2 2:1 1:0 0:10 10:11"/>
    </vehicle>
    <vehicle id="170" depart="17.00">
        <route edges="13:12 12:1 1:0 0:8"/>
    </vehicle>
    <vehicle id="171" depart="17.10">
        <route edges="11:10 10:0 0:1 1:2 2:14 14:15"/>
    </vehicle>
    <vehicle id="172" depart="17.20">
        <route edges="6:4 4:0 0:1 1:2 2:3 3:5 5:7"/>
    </vehicle>
    <vehicle id="176" depart="17.60">
        <route edges="5:3 3:2 2:1 1:0 0:4 4:6"/>
    </vehicle>
    <vehicle id="177" depart="17.70">
        <route edges="6:4 4:0 0:1 1:2 2:3"/>
    </vehicle>
    <vehicle id="178" depart="17.80">
        <route edges="11:10 10:0 0:4 4:6"/>
    </vehicle>
    <vehicle id="179" depart="17.90">
        <route edges="9:8 8:0 0:1 1:2 2:14 14:15"/>
    </vehicle>
    <vehicle id="180" depart="18.00">
        <route edges="4:0 0:1"/>
    </vehicle>
    <vehicle id="182" depart="18.20">
        <route edges="15:14 14:2 2:3 3:16"/>
    </vehicle>
    <vehicle id="183" depart="18.30">
        <route edges="7:5 5:3 3:2 2:1 1:0 0:8 8:9"/>
    </vehicle>
    <vehicle id="184" depart="18.40">
        <route edges="19:18 18:3 3:5"/>
    </vehicle>
    <vehicle id="188" depart="18.80">
        <route edges="6:4 4:0 0:8 8:9"/>
    </vehicle>
    <vehicle id="191" depart="19.10">
        <route edges="9:8 8:0 0:1"/>
    </vehicle>
    <vehicle id="192" depart="19.20">
        <route edges="6:4 4:0 0:1 1:2 2:3 3:5 5:7"/>
    </vehicle>
    <vehicle id="193" depart="19.30">
        <route edges="5:3 3:2 2:1 1:0 0:4 4:6"/>
    </vehicle>
    <vehicle id="195" depart="19.50">
        <route edges="15:14 14:2 2:3 3:5 5:7"/>
    </vehicle>
    <vehicle id="196" depart="19.60">
        <route edges="7:5 5:3 3:2 2:1 1:0 0:4 4:6"/>
    </vehicle>
    <vehicle id="197" depart="19.70">
        <route edges="7:5 5:3 3:2 2:1 1:0 0:8 8:9"/>
    </vehicle>
    <vehicle id="199" depart="19.90">
        <route edges="6:4 4:0 0:1 1:2 2:3 3:5 5:7"/>
    </vehicle>
    <vehicle id="205" depart="20.50">
        <route edges="16:3 3:2 2:1 1:12"/>
    </vehicle>
    <vehicle id="206" depart="20.60">
        <route edges="6:4 4:0 0:1 1:2 2:3 3:16 16:17"/>
    </vehicle>
    <vehicle id="207" depart="20.70">
        <route edges="13:12 12:1 1:2 2:3 3:5 5:7"/>
    </vehicle>
    <vehicle id="208" depart="20.80">
        <route edges="17:16 16:3 3:2 2:1 1:12 12:13"/>
    </vehicle>
    <vehicle id="209" depart="20.90">
        <route edges="6:4 4:0 0:8 8:9"/>
    </vehicle>
    <vehicle id="210" depart="21.00">
        <route edges="7:5 5:3 3:18"/>
    </vehicle>
    <vehicle id="211" depart="21.10">
        <route edges="9:8 8:0 0:1 1:2 2:3 3:5 5:7"/>
    </vehicle>
    <vehicle id="212" depart="21.20">
        <route edges="19:18 18:3 3:2 2:1 1:12 12:13"/>
    </vehicle>
    <vehicle id="213" depart="21.30">
        <route edges="9:8 8:0 0:10"/>
    </vehicle>
    <vehicle id="215" depart="21.50">
        <route edges="6:4 4:0 0:1 1:12 12:13"/>
    </vehicle>
    <vehicle id="217" depart="21.70">
        <route edges="2:3"/>
    </vehicle>
    <vehicle id="218" depart="21.80">
        <route edges="19:18 18:3 3:2 2:1 1:0 0:8 8:9"/>
    </vehicle>
    <vehicle id="219" depart="21.90">
        <route edges="7:5 5:3 3:2 2:1 1:0 0:4 4:6"/>
    </vehicle>
    <vehicle id="222" depart="22.20">
        <route edges="15:14 14:2 2:1 1:12"/>
    </vehicle>
    <vehicle id="223" depart="22.30">
        <route edges="4:0"/>
    </vehicle>
    <vehicle id="225" depart="22.50">
        <route edges="11:10 10:0 0:4"/>
    </vehicle>
    <vehicle id="226" depart="22.60">
        <route edges="15:14 14:2 2:1"/>
    </vehicle>
    <vehicle id="228" depart="22.80">
        <route edges="7:5 5:3 3:2 2:1 1:12"/>
    </vehicle>
    <vehicle id="229" depart="22.90">
        <route edges="7:5 5:3 3:2 2:1 1:0 0:4 4:6"/>
    </vehicle>
    <vehicle id="231" depart="23.10">
        <route edges="6:4 4:0 0:1 1:2 2:3"/>
    </vehicle>
    <vehicle id="233" depart="23.30">
        <route edges="3:18 18:19"/>
    </vehicle>
    <vehicle id="235" depart="23.50">
        <route edges="19:18 18:3 3:2 2:1 1:0 0:10"/>
    </vehicle>
    <vehicle id="238" depart="23.80">
        <route edges="5:3 3:18"/>
    </vehicle>
    <vehicle id="240" depart="24.00">
        <route edges="17:16 16:3 3:2 2:1 1:0 0:4 4:6"/>
    </vehicle>
    <vehicle id="241" depart="24.10">
        <route edges="11:10 10:0 0:1 1:2 2:3 3:18 18:19"/>
    </vehicle>
    <vehicle id="244" depart="24.40">
        <route edges="9:8 8:0 0:1"/>
    </vehicle>
    <vehicle id="245" depart="24.50">
        <route edges="7:5 5:3 3:2 2:1 1:0 0:4 4:6"/>
    </vehicle>
    <vehicle id="246" depart="24.60">
        <route edges="10:0 0:4"/>
    </vehicle>
    <vehicle id="247" depart="24.70">
        <route edges="13:12 12:1 1:2 2:3 3:18"/>
    </vehicle>
    <vehicle id="250" depart="25.00">
        <route edges="7:5 5:3 3:2 2:1 1:0 0:4 4:6"/>
    </vehicle>
    <vehicle id="251" depart="25.10">
        <route edges="13:12 12:1 1:2 2:3 3:5 5:7"/>
    </vehicle>
    <vehicle id="252" depart="25.20">
        <route edges="5:3 3:2 2:1 1:0 0:8 8:9"/>
    </vehicle>
    <vehicle id="255" depart="25.50">
        <route edges="0:4"/>
    </vehicle>
    <vehicle id="258" depart="25.80">
        <route edges="7:5 5:3 3:2 2:14 14:15"/>
    </vehicle>
    <vehicle id="262" depart="26.20">
        <route edges="2:14 14:15"/>
    </vehicle>
    <vehicle id="265" depart="26.50">
        <route edges="7:5 5:3 3:2 2:1 1:0 0:10 10:11"/>
    </vehicle>
    <vehicle id="269" depart="26.90">
        <route edges="7:5 5:3 3:18"/>
    </vehicle>
    <vehicle id="271" depart="27.10">
        <route edges="19:18 18:3 3:16 16:17"/>
    </vehicle>
    <vehicle id="272" depart="27.20">
        <route edges="15:14 14:2 2:1 1:0 0:8"/>
    </vehicle>
    <vehicle id="275" depart="27.50">
        <route edges="6:4 4:0 0:1 1:2 2:3 3:5"/>
    </vehicle>
    <vehicle id="278" depart="27.80">
        <route edges="17:16 16:3 3:18"/>
    </vehicle>
    <vehicle id="279" depart="27.90">
        <route edges="0:1 1:2 2:3"/>
    </vehicle>
    <vehicle id="281" depart="28.10">
        <route edges="4:0 0:1 1:2 2:3 3:16 16:17"/>
    </vehicle>
    <vehicle id="283" depart="28.30">
        <route edges="0:1 1:2 2:3 3:16 16:17"/>
    </vehicle>
    <vehicle id="285" depart="28.50">
        <route edges="14:2 2:3 3:18 18:19"/>
    </vehicle>
    <vehicle id="287" depart="28.70">
        <route edges="4:0 0:1 1:2 2:3 3:18 18:19"/>
    </vehicle>
    <vehicle id="292" depart="29.20">
        <route edges="5:3 3:2 2:1"/>
    </vehicle>
    <vehicle id="293" depart="29.30">
        <route edges="7:5 5:3 3:2 2:1 1:12"/>
    </vehicle>
    <vehicle id="295" depart="29.50">
        <route edges="11:10 10:0 0:1 1:12 12:13"/>
    </vehicle>
    <vehicle id="296" depart="29.60">
        <route edges="12:1 1:2 2:3 3:18 18:19"/>
    </vehicle>
    <vehicle id="298" depart="29.80">
        <route edges="13:12 12:1 1:0 0:10 10:11"/>
    </vehicle>
    <vehicle id="299" depart="29.90">
        <route edges="3:18 18:19"/>
    </vehicle>
    <vehicle id="303" depart="30.30">
        <route edges="7:5 5:3 3:16 16:17"/>
    </vehicle>
    <vehicle id="305" depart="30.50">
        <route edges="11:10 10:0 0:1 1:2"/>
    </vehicle>
    <vehicle id="307" depart="30.70">
        <route edges="0:1 1:2 2:3 3:16 16:17"/>
    </vehicle>
    <vehicle id="308" depart="30.80">
        <route edges="3:2 2:1 1:0 0:4 4:6"/>
    </vehicle>
    <vehicle id="311" depart="31.10">
        <route edges="15:14 14:2 2:3 3:18 18:19"/>
    </vehicle>
    <vehicle id="312" depart="31.20">
        <route edges="9:8 8:0"/>
    </vehicle>
    <vehicle id="313" depart="31.30">
        <route edges="11:10 10:0 0:1 1:2 2:3 3:5 5:7"/>
    </vehicle>
    <vehicle id="316" depart="31.60">
        <route edges="17:16 16:3 3:2 2:1 1:0 0:10 10:11"/>
    </vehicle>
    <vehicle id="317" depart="31.70">
        <route edges="11:10 10:0 0:1 1:2 2:3 3:16 16:17"/>
    </vehicle>
    <vehicle id="318" depart="31.80">
        <route edges="17:16 16:3 3:2 2:1 1:0 0:10 10:11"/>
    </vehicle>
    <vehicle id="319" depart="31.90">
        <route edges="17:16 16:3 3:2 2:1 1:0 0:4 4:6"/>
    </vehicle>
    <vehicle id="321" depart="32.10">
        <route edges="14:2 2:3"/>
    </vehicle>
    <vehicle id="322" depart="32.20">
        <route edges="16:3 3:5 5:7"/>
    </vehicle>
    <vehicle id="324" depart="32.40">
        <route edges="6:4 4:0 0:1 1:2 2:3 3:5 5:7"/>
    </vehicle>
    <vehicle id="325" depart="32.50">
        <route edges="15:14 14:2 2:1 1:0 0:8 8:9"/>
    </vehicle>
    <vehicle id="327" depart="32.70">
        <route edges="2:3"/>
    </vehicle>
    <vehicle id="330" depart="33.00">
        <route edges="6:4 4:0 0:10 10:11"/>
    </vehicle>
    <vehicle id="333" depart="33.30">
        <route edges="11:10 10:0 0:1 1:2 2:3"/>
    </vehicle>
    <vehicle id="334" depart="33.40">
        <route edges="13:12 12:1 1:2 2:14"/>
    </vehicle>
    <vehicle id="335" depart="33.50">
        <route edges="7:5 5:3 3:2"/>
    </vehicle>
    <vehicle id="336" depart="33.60">
        <route edges="6:4 4:0 0:1 1:2 2:3 3:18 18:19"/>
    </vehicle>
    <vehicle id="337" depart="33.70">
        <route edges="9:8 8:0 0:1 1:2 2:3 3:5 5:7"/>
    </vehicle>
    <vehicle id="339" depart="33.90">
        <route edges="7:5 5:3 3:2 2:1 1:0 0:4 4:6"/>
    </vehicle>
    <vehicle id="341" depart="34.10">
        <route edges="15:14 14:2 2:1 1:0 0:4 4:6"/>
    </vehicle>
    <vehicle id="342" depart="34.20">
        <route edges="7:5 5:3 3:2 2:1 1:0 0:4 4:6"/>
    </vehicle>
    <vehicle id="345" depart="34.50">
        <route edges="17:16 16:3 3:2 2:1 1:12 12:13"/>
    </vehicle>
    <vehicle id="346" depart="34.60">
        <route edges="6:4 4:0 0:1 1:2 2:14 14:15"/>
    </vehicle>
    <vehicle id="347" depart="34.70">
        <route edges="2:3 3:16 16:17"/>
    </vehicle>
    <vehicle id="350" depart="35.00">
        <route edges="7:5 5:3 3:18"/>
    </vehicle>
    <vehicle id="353" depart="35.30">
        <route edges="15:14 14:2 2:1 1:12"/>
    </vehicle>
    <vehicle id="354" depart="35.40">
        <route edges="18:3 3:2 2:1 1:0 0:4 4:6"/>
    </vehicle>
    <vehicle id="355" depart="35.50">
        <route edges="11:10 10:0 0:1 1:2 2:3 3:18"/>
    </vehicle>
    <vehicle id="356" depart="35.60">
        <route edges="11:10 10:0 0:1 1:2 2:3 3:18"/>
    </vehicle>
    <vehicle id="358" depart="35.80">
        <route edges="15:14 14:2 2:3 3:16 16:17"/>
    </vehicle>
    <vehicle id="359" depart="35.90">
        <route edges="15:14 14:2 2:1"/>
    </vehicle>
    <vehicle id="360" depart="36.00">
        <route edges="10:0 0:4 4:6"/>
    </vehicle>
    <vehicle id="367" depart="36.70">
        <route edges="9:8 8:0 0:4 4:6"/>
    </vehicle>
    <vehicle id="368" depart="36.80">
        <route edges="4:0 0:1 1:2 2:3 3:16"/>
    </vehicle>
    <vehicle id="369" depart="36.90">
        <route edges="12:1 1:0 0:4 4:6"/>
    </vehicle>
    <vehicle id="371" depart="37.10">
        <route edges="6:4 4:0 0:8"/>
    </vehicle>
    <vehicle id="372" depart="37.20">
        <route edges="10:0"/>
    </vehicle>
    <vehicle id="373" depart="37.30">
        <route edges="9:8 8:0"/>
    </vehicle>
    <vehicle id="375" depart="37.50">
        <route edges="4:0 0:1 1:12 12:13"/>
    </vehicle>
    <vehicle id="378" depart="37.80">
        <route edges="5:3 3:2"/>
    </vehicle>
    <vehicle id="381" depart="38.10">
        <route edges="2:1 1:0 0:10 10:11"/>
    </vehicle>
    <vehicle id="382" depart="38.20">
        <route edges="10:0 0:1 1:2 2:3 3:5 5:7"/>
    </vehicle>
    <vehicle id="384" depart="38.40">
        <route edges="19:18 18:3 3:2 2:14"/>
    </vehicle>
    <vehicle id="385" depart="38.50">
        <route edges="6:4 4:0 0:1 1:2 2:3 3:18 18:19"/>
    </vehicle>
    <vehicle id="388" depart="38.80">
        <route edges="6:4 4:0 0:1 1:2"/>
    </vehicle>
    <vehicle id="390" depart="39.00">
        <route edges="4:0 0:1 1:2 2:3 3:5 5:7"/>
    </vehicle>
    <vehicle id="391" depart="39.10">
        <route edges="3:18 18:19"/>
    </vehicle>
    <vehicle id="392" depart="39.20">
        <route edges="15:14 14:2 2:3 3:18 18:19"/>
    </vehicle>
    <vehicle id="393" depart="39.30">
        <route edges="19:18 18:3 3:5 5:7"/>
    </vehicle>
    <vehicle id="395" depart="39.50">
        <route edges="19:18 18:3 3:5 5:7"/>
    </vehicle>
    <vehicle id="396" depart="39.60">
        <route edges="19:18 18:3 3:2 2:1"/>
    </vehicle>
    <vehicle id="398" depart="39.80">
        <route edges="7:5 5:3 3:2 2:1 1:0 0:4"/>
    </vehicle>
    <vehicle id="399" depart="39.90">
        <route edges="7:5 5:3 3:16"/>
    </vehicle>
    <vehicle id="401" depart="40.10">
        <route edges="5:3 3:2 2:1 1:0"/>
    </vehicle>
    <vehicle id="402" depart="40.20">
        <route edges="12:1 1:2 2:3"/>
    </vehicle>
    <vehicle id="408" depart="40.80">
        <route edges="5:3 3:2 2:1 1:0"/>
    </vehicle>
    <vehicle id="413" depart="41.30">
        <route edges="7:5 5:3 3:2 2:1 1:0 0:4 4:6"/>
    </vehicle>
    <vehicle id="415" depart="41.50">
        <route edges="0:1 1:2 2:3 3:5 5:7"/>
    </vehicle>
    <vehicle id="416" depart="41.60">
        <route edges="1:2 2:3"/>
    </vehicle>
    <vehicle id="418" depart="41.80">
        <route edges="5:3 3:16 16:17"/>
    </vehicle>
    <vehicle id="421" depart="42.10">
        <route edges="0:1 1:2 2:14 14:15"/>
    </vehicle>
    <vehicle id="422" depart="42.20">
        <route edges="17:16 16:3 3:2"/>
    </vehicle>
    <vehicle id="423" depart="42.30">
        <route edges="6:4 4:0 0:1 1:2 2:3 3:16 16:17"/>
    </vehicle>
    <vehicle id="425" depart="42.50">
        <route edges="7:5 5:3 3:2 2:14 14:15"/>
    </vehicle>
    <vehicle id="427" depart="42.70">
        <route edges="0:10 10:11"/>
    </vehicle>
    <vehicle id="428" depart="42.80">
        <route edges="4:0 0:1 1:2 2:3 3:18"/>
    </vehicle>
    <vehicle id="430" depart="43.00">
        <route edges="0:1 1:2 2:3 3:5 5:7"/>
    </vehicle>
    <vehicle id="431" depart="43.10">
        <route edges="17:16 16:3 3:5 5:7"/>
    </vehicle>
    <vehicle id="432" depart="43.20">
        <route edges="11:10 10:0 0:1 1:2 2:3 3:5 5:7"/>
    </vehicle>
    <vehicle id="433" depart="43.30">
        <route edges="11:10 10:0 0:4 4:6"/>
    </vehicle>
    <vehicle id="434" depart="43.40">
        <route edges="6:4 4:0 0:8"/>
    </vehicle>
    <vehicle id="435" depart="43.50">
        <route edges="11:10 10:0 0:1 1:2 2:3 3:16 16:17"/>
    </vehicle>
    <vehicle id="436" depart="43.60">
        <route edges="15:14 14:2 2:3 3:18 18:19"/>
    </vehicle>
    <vehicle id="438" depart="43.80">
        <route edges="19:18 18:3 3:2 2:1 1:0 0:10 10:11"/>
    </vehicle>
    <vehicle id="439" depart="43.90">
        <route edges="4:0 0:8 8:9"/>
    </vehicle>
    <vehicle id="440" depart="44.00">
        <route edges="2:3 3:5 5:7"/>
    </vehicle>
    <vehicle id="444" depart="44.40">
        <route edges="19:18 18:3 3:2 2:1 1:0 0:8 8:9"/>
    </vehicle>
    <vehicle id="446" depart="44.60">
        <route edges="6:4 4:0 0:10 10:11"/>
    </vehicle>
    <vehicle id="449" depart="44.90">
        <route edges="2:3"/>
    </vehicle>
    <vehicle id="450" depart="45.00">
        <route edges="15:14 14:2 2:1 1:12 12:13"/>
    </vehicle>
    <vehicle id="451" depart="45.10">
        <route edges="4:0 0:8 8:9"/>
    </vehicle>
    <vehicle id="452" depart="45.20">
        <route edges="6:4 4:0 0:1 1:2 2:3 3:18 18:19"/>
    </vehicle>
    <vehicle id="453" depart="45.30">
        <route edges="5:3 3:16 16:17"/>
    </vehicle>
    <vehicle id="454" depart="45.40">
        <route edges="7:5 5:3 3:2 2:14 14:15"/>
    </vehicle>
    <vehicle id="456" depart="45.60">
        <route edges="8:0 0:1 1:2 2:3 3:16 16:17"/>
    </vehicle>
    <vehicle id="459" depart="45.90">
        <route edges="12:1 1:0 0:4"/>
    </vehicle>
    <vehicle id="460" depart="46.00">
        <route edges="15:14 14:2 2:1 1:0 0:4 4:6"/>
    </vehicle>
    <vehicle id="461" depart="46.10">
        <route edges="5:3 3:18 18:19"/>
    </vehicle>
    <vehicle id="463" depart="46.30">
        <route edges="3:2"/>
    </vehicle>
    <vehicle id="464" depart="46.40">
        <route edges="4:0 0:1 1:2 2:14 14:15"/>
    </vehicle>
    <vehicle id="465" depart="46.50">
        <route edges="3:5 5:7"/>
    </vehicle>
    <vehicle id="466" depart="46.60">
        <route edges="18:3 3:5"/>
    </vehicle>
    <vehicle id="467" depart="46.70">
        <route edges="19:18 18:3 3:2 2:1 1:0 0:4 4:6"/>
    </vehicle>
    <vehicle id="470" depart="47.00">
        <route edges="7:5 5:3 3:2 2:1 1:12"/>
    </vehicle>
    <vehicle id="471" depart="47.10">
        <route edges="13:12 12:1 1:0 0:4"/>
    </vehicle>
    <vehicle id="472" depart="47.20">
        <route edges="9:8 8:0 0:1 1:2 2:3 3:18 18:19"/>
    </vehicle>
    <vehicle id="474" depart="47.40">
        <route edges="2:1 1:0 0:4 4:6"/>
    </vehicle>
    <vehicle id="478" depart="47.80">
        <route edges="3:18 18:19"/>
    </vehicle>
    <vehicle id="479" depart="47.90">
        <route edges="19:18 18:3 3:2 2:1 1:0 0:4 4:6"/>
    </vehicle>
    <vehicle id="480" depart="48.00">
        <route edges="0:8"/>
    </vehicle>
    <vehicle id="481" depart="48.10">
        <route edges="15:14 14:2 2:1 1:0 0:4 4:6"/>
    </vehicle>
    <vehicle id="483" depart="48.30">
        <route edges="3:2 2:1 1:0 0:4 4:6"/>
    </vehicle>
    <vehicle id="486" depart="48.60">
        <route edges="13:12 12:1 1:2 2:14"/>
    </vehicle>
    <vehicle id="487" depart="48.70">
        <route edges="7:5 5:3 3:2 2:1 1:0 0:8 8:9"/>
    </vehicle>
    <vehicle id="489" depart="48.90">
        <route edges="14:2 2:3 3:5 5:7"/>
    </vehicle>
    <vehicle id="490" depart="49.00">
        <route edges="11:10 10:0 0:1 1:2 2:3 3:18"/>
    </vehicle>
    <vehicle id="491" depart="49.10">
        <route edges="2:3"/>
    </vehicle>
    <vehicle id="495" depart="49.50">
        <route edges="7:5 5:3 3:2 2:1 1:0 0:4 4:6"/>
    </vehicle>
    <vehicle id="498" depart="49.80">
        <route edges="7:5 5:3 3:2 2:14 14:15"/>
    </vehicle>
    <vehicle id="499" depart="49.90">
        <route edges="17:16 16:3 3:2 2:1 1:0 0:4 4:6"/>
    </vehicle>
    <vehicle id="500" depart="50.00">
        <route edges="1:0 0:8 8:9"/>
    </vehicle>
    <vehicle id="501" depart="50.10">
        <route edges="9:8 8:0 0:1 1:2 2:3 3:5"/>
    </vehicle>
    <vehicle id="502" depart="50.20">
        <route edges="11:10 10:0 0:1 1:2 2:3 3:18 18:19"/>
    </vehicle>
    <vehicle id="505" depart="50.50">
        <route edges="10:0 0:1 1:2 2:3 3:18 18:19"/>
    </vehicle>
    <vehicle id="506" depart="50.60">
        <route edges="11:10 10:0 0:1 1:2"/>
    </vehicle>
    <vehicle id="508" depart="50.80">
        <route edges="7:5 5:3 3:18"/>
    </vehicle>
    <vehicle id="513" depart="51.30">
        <route edges="7:5 5:3"/>
    </vehicle>
    <vehicle id="515" depart="51.50">
        <route edges="7:5 5:3 3:18 18:19"/>
    </vehicle>
    <vehicle id="516" depart="51.60">
        <route edges="17:16 16:3 3:2 2:1 1:12 12:13"/>
    </vehicle>
    <vehicle id="517" depart="51.70">
        <route edges="15:14 14:2 2:1 1:0 0:4"/>
    </vehicle>
    <vehicle id="521" depart="52.10">
        <route edges="5:3 3:18 18:19"/>
    </vehicle>
    <vehicle id="524" depart="52.40">
        <route edges="2:3"/>
    </vehicle>
    <vehicle id="526" depart="52.60">
        <route edges="6:4 4:0 0:1 1:2 2:3"/>
    </vehicle>
    <vehicle id="528" depart="52.80">
        <route edges="6:4 4:0 0:10 10:11"/>
    </vehicle>
    <vehicle id="529" depart="52.90">
        <route edges="4:0"/>
    </vehicle>
    <vehicle id="531" depart="53.10">
        <route edges="18:3 3:5"/>
    </vehicle>
    <vehicle id="533" depart="53.30">
        <route edges="3:5 5:7"/>
    </vehicle>
    <vehicle id="539" depart="53.90">
        <route edges="5:3 3:2 2:1 1:0 0:4 4:6"/>
    </vehicle>
    <vehicle id="543" depart="54.30">
        <route edges="13:12 12:1 1:2"/>
    </vehicle>
    <vehicle id="544" depart="54.40">
        <route edges="11:10 10:0 0:1 1:12 12:13"/>
    </vehicle>
    <vehicle id="545" depart="54.50">
        <route edges="15:14 14:2 2:1 1:0"/>
    </vehicle>
    <vehicle id="546" depart="54.60">
        <route edges="6:4 4:0 0:1 1:2 2:3 3:5 5:7"/>
    </vehicle>
    <vehicle id="547" depart="54.70">
        <route edges="13:12 12:1 1:2 2:3 3:5"/>
    </vehicle>
    <vehicle id="548" depart="54.80">