<?xml version="1.0" encoding="UTF-8"?>

<!-- generated on Thu Oct 23 22:34:41 2014 by SUMO duarouter Version 0.18.0
<?xml version="1.0" encoding="UTF-8"?>

<configuration xmlns:xsi="http://www.w3.org/2001/XMLSchema-instance" xsi:noNamespaceSchemaLocation="http://sumo.sf.net/xsd/duarouterConfiguration.xsd">

    <input>
        <net-file value="corridor.net.xml"/>
        <trip-files value="experimentos/corridor.p0.7.9.trips.xml"/>
    </input>

    <output>
        <output-file value="experimentos/corridor.p0.7.9.rou.xml"/>
    </output>

    <processing>
        <ignore-errors value="true"/>
    </processing>

    <random_number>
        <random value="true"/>
    </random_number>

</configuration>
-->

<routes xmlns:xsi="http://www.w3.org/2001/XMLSchema-instance" xsi:noNamespaceSchemaLocation="http://sumo.sf.net/xsd/routes_file.xsd">
    <vehicle id="0" depart="0.00">
        <route edges="17:16 16:3 3:18 18:19"/>
    </vehicle>
    <vehicle id="1" depart="0.70">
        <route edges="7:5 5:3 3:16 16:17"/>
    </vehicle>
    <vehicle id="5" depart="3.50">
        <route edges="15:14 14:2 2:1 1:12 12:13"/>
    </vehicle>
    <vehicle id="8" depart="5.60">
        <route edges="19:18 18:3 3:5 5:7"/>
    </vehicle>
    <vehicle id="9" depart="6.30">
        <route edges="6:4 4:0 0:10 10:11"/>
    </vehicle>
    <vehicle id="11" depart="7.70">
        <route edges="9:8 8:0 0:10 10:11"/>
    </vehicle>
    <vehicle id="12" depart="8.40">
        <route edges="6:4 4:0 0:10 10:11"/>
    </vehicle>
    <vehicle id="13" depart="9.10">
        <route edges="7:5 5:3 3:2 2:1"/>
    </vehicle>
    <vehicle id="14" depart="9.80">
        <route edges="3:5 5:7"/>
    </vehicle>
    <vehicle id="15" depart="10.50">
        <route edges="15:14 14:2 2:1"/>
    </vehicle>
    <vehicle id="17" depart="11.90">
        <route edges="6:4 4:0 0:1 1:12"/>
    </vehicle>
    <vehicle id="18" depart="12.60">
        <route edges="5:3 3:2 2:1 1:12 12:13"/>
    </vehicle>
    <vehicle id="19" depart="13.30">
        <route edges="3:2 2:1 1:12 12:13"/>
    </vehicle>
    <vehicle id="21" depart="14.70">
        <route edges="0:1 1:2 2:3 3:16 16:17"/>
    </vehicle>
    <vehicle id="22" depart="15.40">
        <route edges="1:2 2:3 3:5 5:7"/>
    </vehicle>
    <vehicle id="24" depart="16.80">
        <route edges="6:4 4:0 0:1"/>
    </vehicle>
    <vehicle id="25" depart="17.50">
        <route edges="15:14 14:2 2:1 1:0 0:10 10:11"/>
    </vehicle>
    <vehicle id="27" depart="18.90">
        <route edges="13:12 12:1 1:2 2:3 3:5 5:7"/>
    </vehicle>
    <vehicle id="32" depart="22.40">
        <route edges="7:5 5:3 3:2 2:1 1:0 0:4 4:6"/>
    </vehicle>
    <vehicle id="33" depart="23.10">
        <route edges="13:12 12:1 1:0 0:4 4:6"/>
    </vehicle>
    <vehicle id="34" depart="23.80">
        <route edges="7:5 5:3 3:2 2:1"/>
    </vehicle>
    <vehicle id="37" depart="25.90">
        <route edges="13:12 12:1"/>
    </vehicle>
    <vehicle id="41" depart="28.70">
        <route edges="11:10 10:0 0:4 4:6"/>
    </vehicle>
    <vehicle id="42" depart="29.40">
        <route edges="19:18 18:3 3:2 2:1 1:0 0:10 10:11"/>
    </vehicle>
    <vehicle id="44" depart="30.80">
        <route edges="13:12 12:1 1:0 0:4 4:6"/>
    </vehicle>
    <vehicle id="46" depart="32.20">
        <route edges="6:4 4:0 0:1 1:2 2:3 3:5 5:7"/>
    </vehicle>
    <vehicle id="47" depart="32.90">
        <route edges="6:4 4:0 0:1 1:2 2:3 3:16 16:17"/>
    </vehicle>
    <vehicle id="48" depart="33.60">
        <route edges="17:16 16:3 3:2 2:1 1:0 0:4"/>
    </vehicle>
    <vehicle id="50" depart="35.00">
        <route edges="15:14 14:2"/>
    </vehicle>
    <vehicle id="52" depart="36.40">
        <route edges="17:16 16:3 3:2 2:1 1:12"/>
    </vehicle>
    <vehicle id="53" depart="37.10">
        <route edges="6:4 4:0 0:1 1:2 2:3 3:18 18:19"/>
    </vehicle>
    <vehicle id="54" depart="37.80">
        <route edges="6:4 4:0 0:10 10:11"/>
    </vehicle>
    <vehicle id="55" depart="38.50">
        <route edges="14:2 2:3"/>
    </vehicle>
    <vehicle id="57" depart="39.90">
        <route edges="17:16 16:3 3:2 2:1 1:12 12:13"/>
    </vehicle>
    <vehicle id="58" depart="40.60">
        <route edges="6:4 4:0 0:8 8:9"/>
    </vehicle>
    <vehicle id="59" depart="41.30">
        <route edges="17:16 16:3 3:5 5:7"/>
    </vehicle>
    <vehicle id="61" depart="42.70">
        <route edges="10:0 0:1 1:2 2:3 3:5"/>
    </vehicle>
    <vehicle id="62" depart="43.40">
        <route edges="7:5 5:3 3:2 2:1 1:0 0:4 4:6"/>
    </vehicle>
    <vehicle id="63" depart="44.10">
        <route edges="6:4 4:0 0:1 1:2 2:3 3:5 5:7"/>
    </vehicle>
    <vehicle id="64" depart="44.80">
        <route edges="17:16 16:3"/>
    </vehicle>
    <vehicle id="66" depart="46.20">
        <route edges="0:1 1:2 2:3"/>
    </vehicle>
    <vehicle id="70" depart="49.00">
        <route edges="8:0 0:1 1:2 2:3 3:18 18:19"/>
    </vehicle>
    <vehicle id="71" depart="49.70">
        <route edges="17:16 16:3 3:2 2:1 1:0 0:10"/>
    </vehicle>
    <vehicle id="73" depart="51.10">
        <route edges="19:18 18:3 3:16 16:17"/>
    </vehicle>
    <vehicle id="74" depart="51.80">
        <route edges="7:5 5:3 3:2 2:1 1:0 0:4 4:6"/>
    </vehicle>
    <vehicle id="75" depart="52.50">
        <route edges="10:0 0:1 1:12 12:13"/>
    </vehicle>
    <vehicle id="79" depart="55.30">
        <route edges="15:14 14:2 2:1 1:0 0:4 4:6"/>
    </vehicle>
    <vehicle id="81" depart="56.70">
        <route edges="15:14 14:2 2:3 3:16 16:17"/>
    </vehicle>
    <vehicle id="82" depart="57.40">
        <route edges="8:0 0:4 4:6"/>
    </vehicle>
    <vehicle id="84" depart="58.80">
        <route edges="7:5 5:3 3:18 18:19"/>
    </vehicle>
    <vehicle id="86" depart="60.20">
        <route edges="10:0 0:1 1:2 2:3 3:16"/>
    </vehicle>
    <vehicle id="88" depart="61.60">
        <route edges="7:5 5:3 3:2 2:1 1:0 0:4"/>
    </vehicle>
    <vehicle id="90" depart="63.00">
        <route edges="3:2 2:1 1:0 0:8 8:9"/>
    </vehicle>
    <vehicle id="91" depart="63.70">
        <route edges="14:2 2:3 3:18"/>
    </vehicle>
    <vehicle id="92" depart="64.40">
        <route edges="9:8 8:0 0:4 4:6"/>
    </vehicle>
    <vehicle id="93" depart="65.10">
        <route edges="6:4 4:0 0:10 10:11"/>
    </vehicle>
    <vehicle id="95" depart="66.50">
        <route edges="19:18 18:3 3:5 5:7"/>
    </vehicle>
    <vehicle id="96" depart="67.20">
        <route edges="11:10 10:0 0:4 4:6"/>
    </vehicle>
    <vehicle id="97" depart="67.90">
        <route edges="15:14 14:2 2:3 3:5 5:7"/>
    </vehicle>
    <vehicle id="98" depart="68.60">
        <route edges="15:14 14:2 2:1 1:0 0:4"/>
    </vehicle>
    <vehicle id="99" depart="69.30">
        <route edges="11:10 10:0 0:1"/>
    </vehicle>
    <vehicle id="100" depart="70.00">
        <route edges="9:8 8:0 0:1 1:12"/>
    </vehicle>
    <vehicle id="101" depart="70.70">
        <route edges="5:3 3:2 2:14 14:15"/>
    </vehicle>
    <vehicle id="102" depart="71.40">
        <route edges="13:12 12:1 1:2 2:3 3:5 5:7"/>
    </vehicle>
    <vehicle id="103" depart="72.10">
        <route edges="5:3 3:2 2:1 1:12 12:13"/>
    </vehicle>
    <vehicle id="105" depart="73.50">
        <route edges="3:2 2:1 1:0 0:4 4:6"/>
    </vehicle>
    <vehicle id="106" depart="74.20">
        <route edges="2:3"/>
    </vehicle>
    <vehicle id="108" depart="75.60">
        <route edges="19:18 18:3 3:5 5:7"/>
    </vehicle>
    <vehicle id="109" depart="76.30">
        <route edges="15:14 14:2 2:1 1:0 0:8 8:9"/>
    </vehicle>
    <vehicle id="110" depart="77.00">
        <route edges="14:2 2:3 3:18"/>
    </vehicle>
    <vehicle id="111" depart="77.70">
        <route edges="13:12 12:1 1:2 2:3 3:5"/>
    </vehicle>
    <vehicle id="113" depart="79.10">
        <route edges="9:8 8:0 0:1 1:2 2:3 3:16 16:17"/>
    </vehicle>
    <vehicle id="114" depart="79.80">
        <route edges="9:8 8:0 0:1 1:2 2:3 3:18 18:19"/>
    </vehicle>
    <vehicle id="119" depart="83.30">
        <route edges="3:2 2:1 1:0 0:8 8:9"/>
    </vehicle>
    <vehicle id="120" depart="84.00">
        <route edges="19:18 18:3 3:2 2:1 1:0 0:4 4:6"/>
    </vehicle>
    <vehicle id="121" depart="84.70">
        <route edges="17:16 16:3 3:2 2:1 1:0 0:4"/>
    </vehicle>
    <vehicle id="122" depart="85.40">
        <route edges="13:12 12:1 1:2 2:3 3:5 5:7"/>
    </vehicle>
    <vehicle id="124" depart="86.80">
        <route edges="19:18 18:3 3:2 2:1 1:0 0:10 10:11"/>
    </vehicle>
    <vehicle id="125" depart="87.50">
        <route edges="15:14 14:2 2:1 1:12 12:13"/>
    </vehicle>
    <vehicle id="126" depart="88.20">
        <route edges="6:4 4:0 0:8"/>
    </vehicle>
    <vehicle id="127" depart="88.90">
        <route edges="11:10 10:0 0:1 1:2 2:3"/>
    </vehicle>
    <vehicle id="130" depart="91.00">
        <route edges="6:4 4:0 0:1"/>
    </vehicle>
    <vehicle id="135" depart="94.50">
        <route edges="1:0 0:4 4:6"/>
    </vehicle>
    <vehicle id="136" depart="95.20">
        <route edges="1:12 12:13"/>
    </vehicle>
    <vehicle id="139" depart="97.30">
        <route edges="10:0 0:4 4:6"/>
    </vehicle>
    <vehicle id="140" depart="98.00">
        <route edges="11:10 10:0 0:1 1:2 2:3"/>
    </vehicle>
    <vehicle id="141" depart="98.70">
        <route edges="6:4 4:0 0:1 1:2 2:3 3:5 5:7"/>
    </vehicle>
    <vehicle id="143" depart="100.10">
        <route edges="6:4 4:0 0:1 1:2 2:3 3:16"/>
    </vehicle>
    <vehicle id="146" depart="102.20">
        <route edges="13:12 12:1 1:2 2:14 14:15"/>
    </vehicle>
    <vehicle id="147" depart="102.90">
        <route edges="11:10 10:0 0:1 1:2 2:3 3:5 5:7"/>
    </vehicle>
    <vehicle id="150" depart="105.00">
        <route edges="8:0 0:1 1:12"/>
    </vehicle>
    <vehicle id="151" depart="105.70">
        <route edges="17:16 16:3 3:2 2:1 1:0 0:4"/>
    </vehicle>
    <vehicle id="152" depart="106.40">
        <route edges="3:2 2:14 14:15"/>
    </vehicle>
    <vehicle id="153" depart="107.10">
        <route edges="14:2 2:3 3:5"/>
    </vehicle>
    <vehicle id="154" depart="107.80">
        <route edges="19:18 18:3 3:2 2:1 1:12 12:13"/>
    </vehicle>
    <vehicle id="155" depart="108.50">
        <route edges="17:16 16:3 3:2 2:1 1:0 0:4"/>
    </vehicle>
    <vehicle id="158" depart="110.60">
        <route edges="13:12 12:1 1:2 2:3 3:18 18:19"/>
    </vehicle>
    <vehicle id="162" depart="113.40">
        <route edges="6:4 4:0 0:1 1:2 2:14 14:15"/>
    </vehicle>
    <vehicle id="163" depart="114.10">
        <route edges="1:2 2:3 3:5 5:7"/>
    </vehicle>
    <vehicle id="164" depart="114.80">
        <route edges="7:5 5:3 3:2 2:1 1:0 0:4"/>
    </vehicle>
    <vehicle id="168" depart="117.60">
        <route edges="2:3 3:5 5:7"/>
    </vehicle>
    <vehicle id="169" depart="118.30">
        <route edges="7:5 5:3 3:18 18:19"/>
    </vehicle>
    <vehicle id="170" depart="119.00">
        <route edges="13:12 12:1 1:0 0:4 4:6"/>
    </vehicle>
    <vehicle id="171" depart="119.70">
        <route edges="2:3 3:18"/>
    </vehicle>
    <vehicle id="172" depart="120.40">
        <route edges="7:5 5:3 3:2 2:14 14:15"/>
    </vehicle>
    <vehicle id="174" depart="121.80">
        <route edges="13:12 12:1 1:0 0:10 10:11"/>
    </vehicle>
    <vehicle id="175" depart="122.50">
        <route edges="11:10 10:0 0:1 1:2 2:14 14:15"/>
    </vehicle>
    <vehicle id="177" depart="123.90">
        <route edges="5:3 3:16 16:17"/>
    </vehicle>
    <vehicle id="178" depart="124.60">
        <route edges="17:16 16:3 3:2"/>
    </vehicle>
    <vehicle id="180" depart="126.00">
        <route edges="5:3 3:2 2:1 1:12"/>
    </vehicle>
    <vehicle id="187" depart="130.90">
        <route edges="11:10 10:0 0:1 1:2 2:3 3:5"/>
    </vehicle>
    <vehicle id="189" depart="132.30">
        <route edges="11:10 10:0 0:8 8:9"/>
    </vehicle>
    <vehicle id="192" depart="134.40">
        <route edges="19:18 18:3 3:16 16:17"/>
    </vehicle>
    <vehicle id="194" depart="135.80">
        <route edges="7:5 5:3 3:2 2:1 1:0 0:10"/>
    </vehicle>
    <vehicle id="195" depart="136.50">
        <route edges="11:10 10:0 0:4 4:6"/>
    </vehicle>
    <vehicle id="196" depart="137.20">
        <route edges="19:18 18:3 3:2 2:1 1:0 0:10 10:11"/>
    </vehicle>
    <vehicle id="197" depart="137.90">
        <route edges="18:3 3:2 2:1 1:0 0:4 4:6"/>
    </vehicle>
    <vehicle id="198" depart="138.60">
        <route edges="6:4 4:0 0:1 1:2 2:3 3:18"/>
    </vehicle>
    <vehicle id="200" depart="140.00">
        <route edges="4:0 0:1 1:2 2:3 3:5 5:7"/>
    </vehicle>
    <vehicle id="202" depart="141.40">
        <route edges="3:2 2:1 1:0 0:4 4:6"/>
    </vehicle>
    <vehicle id="203" depart="142.10">
        <route edges="8:0 0:4"/>
    </vehicle>
    <vehicle id="206" depart="144.20">
        <route edges="15:14 14:2 2:1 1:12 12:13"/>
    </vehicle>
    <vehicle id="208" depart="145.60">
        <route edges="6:4 4:0 0:1 1:2 2:3 3:5 5:7"/>
    </vehicle>
    <vehicle id="210" depart="147.00">
        <route edges="13:12 12:1 1:2 2:3 3:18 18:19"/>
    </vehicle>
    <vehicle id="211" depart="147.70">
        <route edges="17:16 16:3 3:18 18:19"/>
    </vehicle>
    <vehicle id="213" depart="149.10">
        <route edges="15:14 14:2 2:1 1:0 0:10"/>
    </vehicle>
    <vehicle id="218" depart="152.60">
        <route edges="10:0 0:1 1:2 2:3"/>
    </vehicle>
    <vehicle id="220" depart="154.00">
        <route edges="15:14 14:2 2:3"/>
    </vehicle>
    <vehicle id="223" depart="156.10">
        <route edges="7:5 5:3 3:2 2:1 1:0 0:10 10:11"/>
    </vehicle>
    <vehicle id="225" depart="157.50">
        <route edges="6:4 4:0 0:1 1:2 2:3 3:16 16:17"/>
    </vehicle>
    <vehicle id="226" depart="158.20">
        <route edges="19:18 18:3 3:2 2:1 1:12 12:13"/>
    </vehicle>
    <vehicle id="227" depart="158.90">
        <route edges="12:1 1:2 2:3 3:5 5:7"/>
    </vehicle>
    <vehicle id="231" depart="161.70">
        <route edges="17:16 16:3 3:5 5:7"/>
    </vehicle>
    <vehicle id="233" depart="163.10">
        <route edges="17:16 16:3 3:18 18:19"/>
    </vehicle>
    <vehicle id="234" depart="163.80">
        <route edges="7:5 5:3 3:2 2:14 14:15"/>
    </vehicle>
    <vehicle id="237" depart="165.90">
        <route edges="7:5 5:3 3:2 2:1 1:0 0:8 8:9"/>
    </vehicle>
    <vehicle id="239" depart="167.30">
        <route edges="7:5 5:3 3:2 2:1 1:0 0:10 10:11"/>
    </vehicle>
    <vehicle id="240" depart="168.00">
        <route edges="17:16 16:3"/>
    </vehicle>
    <vehicle id="241" depart="168.70">
        <route edges="13:12 12:1 1:0 0:10 10:11"/>
    </vehicle>
    <vehicle id="244" depart="170.80">
        <route edges="17:16 16:3 3:2 2:1 1:12"/>
    </vehicle>
    <vehicle id="246" depart="172.20">
        <route edges="6:4 4:0 0:1 1:2 2:14 14:15"/>
    </vehicle>
    <vehicle id="247" depart="172.90">
        <route edges="13:12 12:1 1:0 0:8 8:9"/>
    </vehicle>
    <vehicle id="248" depart="173.60">
        <route edges="6:4 4:0 0:8 8:9"/>
    </vehicle>
    <vehicle id="249" depart="174.30">
        <route edges="1:2 2:3 3:18"/>
    </vehicle>
    <vehicle id="250" depart="175.00">
        <route edges="7:5 5:3"/>
    </vehicle>
    <vehicle id="252" depart="176.40">
        <route edges="19:18 18:3 3:2 2:1 1:0 0:4 4:6"/>
    </vehicle>
    <vehicle id="253" depart="177.10">
        <route edges="13:12 12:1 1:0 0:10 10:11"/>
    </vehicle>
    <vehicle id="254" depart="177.80">
        <route edges="7:5 5:3 3:16 16:17"/>
    </vehicle>
    <vehicle id="259" depart="181.30">
        <route edges="13:12 12:1 1:0 0:8"/>
    </vehicle>
    <vehicle id="261" depart="182.70">
        <route edges="19:18 18:3 3:2 2:1 1:0 0:8"/>
    </vehicle>
    <vehicle id="262" depart="183.40">
        <route edges="7:5 5:3 3:2 2:1 1:12 12:13"/>
    </vehicle>
    <vehicle id="264" depart="184.80">
        <route edges="9:8 8:0 0:1 1:12"/>
    </vehicle>
    <vehicle id="265" depart="185.50">
        <route edges="6:4 4:0 0:1"/>
    </vehicle>
    <vehicle id="267" depart="186.90">
        <route edges="3:2 2:1 1:0 0:10 10:11"/>
    </vehicle>
    <vehicle id="268" depart="187.60">
        <route edges="17:16 16:3 3:2"/>
    </vehicle>
    <vehicle id="269" depart="188.30">
        <route edges="0:1 1:2 2:3 3:5 5:7"/>
    </vehicle>
    <vehicle id="273" depart="191.10">
        <route edges="6:4 4:0 0:1 1:2 2:3 3:16 16:17"/>
    </vehicle>
    <vehicle id="274" depart="191.80">
        <route edges="0:1 1:2 2:3 3:5 5:7"/>
    </vehicle>
    <vehicle id="276" depart="193.20">
        <route edges="11:10 10:0 0:4 4:6"/>
    </vehicle>
    <vehicle id="278" depart="194.60">
        <route edges="13:12 12:1 1:2 2:3 3:18"/>
    </vehicle>
    <vehicle id="279" depart="195.30">
        <route edges="19:18 18:3 3:2 2:1 1:12 12:13"/>
    </vehicle>
    <vehicle id="280" depart="196.00">
        <route edges="3:2 2:1 1:0 0:4 4:6"/>
    </vehicle>
    <vehicle id="283" depart="198.10">
        <route edges="19:18 18:3 3:16"/>
    </vehicle>
    <vehicle id="284" depart="198.80">
        <route edges="5:3 3:18 18:19"/>
    </vehicle>
    <vehicle id="294" depart="205.80">
        <route edges="11:10 10:0 0:1 1:2 2:3 3:18 18:19"/>
    </vehicle>
    <vehicle id="295" depart="206.50">
        <route edges="17:16 16:3 3:2 2:1 1:0"/>
    </vehicle>
    <vehicle id="296" depart="207.20">
        <route edges="6:4 4:0 0:1"/>
    </vehicle>
    <vehicle id="297" depart="207.90">
        <route edges="10:0 0:4 4:6"/>
    </vehicle>
    <vehicle id="300" depart="210.00">
        <route edges="19:18 18:3 3:16 16:17"/>
    </vehicle>
    <vehicle id="302" depart="211.40">
        <route edges="8:0 0:1"/>
    </vehicle>
    <vehicle id="305" depart="213.50">
        <route edges="3:5"/>
    </vehicle>
    <vehicle id="307" depart="214.90">
        <route edges="15:14 14:2 2:3"/>
    </vehicle>
    <vehicle id="309" depart="216.30">
        <route edges="17:16 16:3 3:18 18:19"/>
    </vehicle>
    <vehicle id="310" depart="217.00">
        <route edges="7:5 5:3 3:18"/>
    </vehicle>
    <vehicle id="311" depart="217.70">
        <route edges="7:5 5:3 3:16 16:17"/>
    </vehicle>
    <vehicle id="312" depart="218.40">
        <route edges="14:2 2:3 3:5 5:7"/>
    </vehicle>
    <vehicle id="314" depart="219.80">
        <route edges="7:5 5:3 3:2 2:1 1:0 0:8"/>
    </vehicle>
    <vehicle id="316" depart="221.20">
        <route edges="6:4 4:0 0:10 10:11"/>
    </vehicle>
    <vehicle id="317" depart="221.90">
        <route edges="19:18 18:3 3:2 2:1 1:0 0:4"/>
    </vehicle>
    <vehicle id="319" depart="223.30">
        <route edges="13:12 12:1 1:2 2:3"/>
    </vehicle>
    <vehicle id="322" depart="225.40">
        <route edges="7:5 5:3 3:2 2:1 1:0 0:8"/>
    </vehicle>
    <vehicle id="323" depart="226.10">
        <route edges="3:16 16:17"/>
    </vehicle>
    <vehicle id="324" depart="226.80">
        <route edges="15:14 14:2 2:1 1:0 0:8 8:9"/>
    </vehicle>
    <vehicle id="325" depart="227.50">
        <route edges="3:5 5:7"/>
    </vehicle>
    <vehicle id="326" depart="228.20">
        <route edges="1:0 0:8"/>
    </vehicle>
    <vehicle id="327" depart="228.90">
        <route edges="18:3 3:16 16:17"/>
    </vehicle>
    <vehicle id="330" depart="231.00">
        <route edges="15:14 14:2 2:3 3:5 5:7"/>
    </vehicle>
    <vehicle id="337" depart="235.90">
        <route edges="3:2 2:14 14:15"/>
    </vehicle>
    <vehicle id="338" depart="236.60">
        <route edges="9:8 8:0 0:1 1:2"/>
    </vehicle>
    <vehicle id="339" depart="237.30">
        <route edges="15:14 14:2 2:3 3:5 5:7"/>
    </vehicle>
    <vehicle id="340" depart="238.00">
        <route edges="6:4 4:0 0:1 1:12"/>
    </vehicle>
    <vehicle id="341" depart="238.70">
        <route edges="7:5 5:3 3:2"/>
    </vehicle>
    <vehicle id="343" depart="240.10">
        <route edges="11:10 10:0 0:1"/>
    </vehicle>
    <vehicle id="344" depart="240.80">
        <route edges="13:12 12:1 1:2 2:3 3:18 18:19"/>
    </vehicle>
    <vehicle id="346" depart="242.20">
        <route edges="0:1 1:2 2:3 3:18"/>
    </vehicle>
    <vehicle id="347" depart="242.90">
        <route edges="4:0"/>
    </vehicle>
    <vehicle id="348" depart="243.60">
        <route edges="11:10 10:0 0:1 1:12 12:13"/>
    </vehicle>
    <vehicle id="349" depart="244.30">
        <route edges="4:0 0:1"/>
    </vehicle>
    <vehicle id="350" depart="245.00">
        <route edges="19:18 18:3 3:2 2:1 1:0 0:4 4:6"/>
    </vehicle>
    <vehicle id="351" depart="245.70">
        <route edges="15:14 14:2 2:3 3:5 5:7"/>
    </vehicle>
    <vehicle id="352" depart="246.40">
        <route edges="17:16 16:3 3:5 5:7"/>
    </vehicle>
    <vehicle id="353" depart="247.10">
        <route edges="17:16 16:3 3:2 2:1"/>
    </vehicle>
    <vehicle id="354" depart="247.80">
        <route edges="6:4 4:0 0:1 1:2 2:3"/>
    </vehicle>
    <vehicle id="355" depart="248.50">
        <route edges="13:12 12:1 1:0 0:8"/>
    </vehicle>
    <vehicle id="357" depart="249.90">
        <route edges="3:2 2:1 1:0 0:4 4:6"/>
    </vehicle>
    <vehicle id="358" depart="250.60">
        <route edges="12:1 1:0 0:4 4:6"/>
    </vehicle>
    <vehicle id="359" depart="251.30">
        <route edges="6:4 4:0 0:1 1:2 2:3 3:18"/>
    </vehicle>
    <vehicle id="361" depart="252.70">
        <route edges="1:2 2:3 3:18 18:19"/>
    </vehicle>
    <vehicle id="362" depart="253.40">
        <route edges="1:0 0:4 4:6"/>
    </vehicle>
    <vehicle id="363" depart="254.10">
        <route edges="9:8 8:0 0:10 10:11"/>
    </vehicle>
    <vehicle id="366" depart="256.20">
        <route edges="6:4 4:0 0:1 1:12 12:13"/>
    </vehicle>
    <vehicle id="367" depart="256.90">
        <route edges="12:1 1:0 0:4 4:6"/>
    </vehicle>
    <vehicle id="370" depart="259.00">
        <route edges="5:3 3:2 2:1 1:0"/>
    </vehicle>
    <vehicle id="373" depart="261.10">
        <route edges="3:2 2:1 1:0 0:10 10:11"/>
    </vehicle>
    <vehicle id="374" depart="261.80">
        <route edges="9:8 8:0 0:1 1:2 2:3 3:16 16:17"/>
    </vehicle>
    <vehicle id="376" depart="263.20">
        <route edges="9:8 8:0 0:1 1:2 2:3 3:5 5:7"/>
    </vehicle>
    <vehicle id="377" depart="263.90">
        <route edges="1:0 0:4 4:6"/>
    </vehicle>
    <vehicle id="378" depart="264.60">
        <route edges="17:16 16:3 3:2 2:1 1:12"/>
    </vehicle>
    <vehicle id="379" depart="265.30">
        <route edges="0:1 1:2 2:3"/>
    </vehicle>
    <vehicle id="380" depart="266.00">
        <route edges="6:4 4:0 0:1 1:2 2:14 14:15"/>
    </vehicle>
    <vehicle id="382" depart="267.40">
        <route edges="6:4 4:0 0:1 1:12 12:13"/>
    </vehicle>
    <vehicle id="386" depart="270.20">
        <route edges="7:5 5:3 3:2 2:1 1:12 12:13"/>
    </vehicle>
    <vehicle id="389" depart="272.30">
        <route edges="13:12 12:1 1:2 2:3 3:18 18:19"/>
    </vehicle>
    <vehicle id="391" depart="273.70">
        <route edges="6:4 4:0 0:1 1:2 2:14 14:15"/>
    </vehicle>
    <vehicle id="397" depart="277.90">
        <route edges="17:16 16:3 3:2 2:1 1:0 0:10 10:11"/>
    </vehicle>
    <vehicle id="398" depart="278.60">
        <route edges="1:2 2:3 3:16 16:17"/>
    </vehicle>
    <vehicle id="400" depart="280.00">
        <route edges="2:1 1:0 0:4"/>
    </vehicle>
    <vehicle id="402" depart="281.40">
        <route edges="7:5 5:3 3:2 2:14 14:15"/>
    </vehicle>
    <vehicle id="403" depart="282.10">
        <route edges="6:4 4:0 0:1"/>
    </vehicle>
    <vehicle id="404" depart="282.80">
        <route edges="11:10 10:0 0:1 1:2 2:3 3:18"/>
    </vehicle>
    <vehicle id="405" depart="283.50">
        <route edges="19:18 18:3 3:2"/>
    </vehicle>
    <vehicle id="406" depart="284.20">
        <route edges="2:1 1:0 0:8 8:9"/>
    </vehicle>
    <vehicle id="408" depart="285.60">
        <route edges="11:10 10:0 0:4"/>
    </vehicle>
    <vehicle id="409" depart="286.30">
        <route edges="6:4 4:0 0:1 1:2 2:3 3:5 5:7"/>
    </vehicle>
    <vehicle id="410" depart="287.00">
        <route edges="17:16 16:3 3:2 2:1 1:0 0:10"/>
    </vehicle>
    <vehicle id="416" depart="291.20">
        <route edges="2:1 1:0 0:8 8:9"/>
    </vehicle>
    <vehicle id="417" depart="291.90">
        <route edges="2:3 3:18 18:19"/>
    </vehicle>
    <vehicle id="420" depart="294.00">
        <route edges="15:14 14:2 2:1 1:0"/>
    </vehicle>
    <vehicle id="421" depart="294.70">
        <route edges="0:1 1:12 12:13"/>
    </vehicle>
    <vehicle id="423" depart="296.10">
        <route edges="9:8 8:0 0:1 1:2 2:14"/>
    </vehicle>
    <vehicle id="424" depart="296.80">
        <route edges="11:10 10:0"/>
    </vehicle>
    <vehicle id="425" depart="297.50">
        <route edges="18:3 3:2 2:1 1:0 0:8 8:9"/>
    </vehicle>
    <vehicle id="426" depart="298.20">
        <route edges="17:16 16:3 3:5"/>
    </vehicle>
    <vehicle id="428" depart="299.60">
        <route edges="3:2 2:1 1:0 0:8 8:9"/>
    </vehicle>
    <vehicle id="430" depart="301.00">
        <route edges="6:4 4:0 0:1 1:2 2:3"/>
    </vehicle>
    <vehicle id="433" depart="303.10">
        <route edges="6:4 4:0 0:1 1:2 2:3 3:5 5:7"/>
    </vehicle>
    <vehicle id="434" depart="303.80">
        <route edges="9:8 8:0 0:4 4:6"/>
    </vehicle>
    <vehicle id="435" depart="304.50">
        <route edges="6:4 4:0 0:1 1:2 2:3 3:16 16:17"/>
    </vehicle>
    <vehicle id="437" depart="305.90">
        <route edges="7:5 5:3 3:2 2:1 1:0"/>
    </vehicle>
    <vehicle id="438" depart="306.60">
        <route edges="5:3 3:18 18:19"/>
    </vehicle>
    <vehicle id="439" depart="307.30">
        <route edges="10:0 0:1 1:2 2:3 3:16 16:17"/>
    </vehicle>
    <vehicle id="442" depart="309.40">
        <route edges="7:5 5:3 3:2 2:1 1:0 0:4 4:6"/>
    </vehicle>
    <vehicle id="444" depart="310.80">
        <route edges="6:4 4:0 0:1 1:2 2:3 3:18"/>
    </vehicle>
    <vehicle id="445" depart="311.50">
        <route edges="14:2 2:3 3:5 5:7"/>
    </vehicle>
    <vehicle id="446" depart="312.20">
        <route edges="3:2 2:1"/>
    </vehicle>
    <vehicle id="447" depart="312.90">
        <route edges="9:8 8:0 0:10 10:11"/>
    </vehicle>
    <vehicle id="450" depart="315.00">
        <route edges="6:4 4:0 0:1 1:2 2:3 3:5 5:7"/>
    </vehicle>
    <vehicle id="455" depart="318.50">
        <route edges="1:2 2:3 3:16 16:17"/>
    </vehicle>
    <vehicle id="460" depart="322.00">
        <route edges="4:0 0:1 1:2 2:3 3:18"/>
    </vehicle>
    <vehicle id="462" depart="323.40">
        <route edges="13:12 12:1 1:2 2:3 3:5 5:7"/>
    </vehicle>
    <vehicle id="466" depart="326.20">
        <route edges="14:2 2:1 1:0 0:8 8:9"/>
    </vehicle>
    <vehicle id="471" depart="329.70">
        <route edges="4:0 0:1 1:12 12:13"/>
    </vehicle>
    <vehicle id="474" depart="331.80">
        <route edges="19:18 18:3 3:5 5:7"/>
    </vehicle>
    <vehicle id="475" depart="332.50">
        <route edges="13:12 12:1 1:2 2:14"/>
    </vehicle>
    <vehicle id="479" depart="335.30">
        <route edges="13:12 12:1 1:0 0:10 10:11"/>
    </vehicle>
    <vehicle id="480" depart="336.00">
        <route edges="7:5 5:3 3:2 2:1 1:0 0:4 4:6"/>
    </vehicle>
    <vehicle id="482" depart="337.40">
        <route edges="0:1 1:2 2:3"/>
    </vehicle>
    <vehicle id="483" depart="338.10">
        <route edges="0:1 1:2 2:14 14:15"/>
    </vehicle>
    <vehicle id="485" depart="339.50">
        <route edges="9:8 8:0 0:1 1:2 2:3 3:5 5:7"/>
    </vehicle>
    <vehicle id="489" depart="342.30">
        <route edges="1:2 2:3"/>
    </vehicle>
    <vehicle id="493" depart="345.10">
        <route edges="4:0 0:1 1:2 2:3 3:16 16:17"/>
    </vehicle>
    <vehicle id="497" depart="347.90">
        <route edges="19:18 18:3 3:2"/>
    </vehicle>
    <vehicle id="498" depart="348.60">
        <route edges="9:8 8:0 0:1 1:2 2:14"/>
    </vehicle>
    <vehicle id="500" depart="350.00">
        <route edges="17:16 16:3 3:2 2:1 1:0 0:4 4:6"/>
    </vehicle>
    <vehicle id="502" depart="351.40">
        <route edges="3:2 2:1 1:0 0:4 4:6"/>
    </vehicle>
    <vehicle id="503" depart="352.10">
        <route edges="14:2 2:3 3:5 5:7"/>
    </vehicle>
    <vehicle id="504" depart="352.80">
        <route edges="9:8 8:0 0:1"/>
    </vehicle>
    <vehicle id="506" depart="354.20">
        <route edges="19:18 18:3 3:2 2:1 1:0 0:10 10:11"/>
    </vehicle>
    <vehicle id="507" depart="354.90">
        <route edges="6:4 4:0 0:1 1:2 2:3 3:5 5:7"/>
    </vehicle>
    <vehicle id="509" depart="356.30">
        <route edges="3:2 2:1 1:0 0:10 10:11"/>
    </vehicle>
    <vehicle id="510" depart="357.00">
        <route edges="17:16 16:3 3:2 2:1 1:0 0:4"/>
    </vehicle>
    <vehicle id="511" depart="357.70">
        <route edges="19:18 18:3 3:2 2:14 14:15"/>
    </vehicle>
    <vehicle id="514" depart="359.80">
        <route edges="7:5 5:3 3:2 2:1 1:12 12:13"/>
    </vehicle>
    <vehicle id="517" depart="361.90">
        <route edges="6:4 4:0 0:8 8:9"/>
    </vehicle>
    <vehicle id="520" depart="364.00">
        <route edges="2:3 3:5"/>
    </vehicle>
    <vehicle id="522" depart="365.40">
        <route edges="9:8 8:0 0:4 4:6"/>
    </vehicle>
    <vehicle id="524" depart="366.80">
        <route edges="4:0 0:1 1:2 2:3 3:18 18:19"/>
    </vehicle>
    <vehicle id="527" depart="368.90">
        <route edges="7:5 5:3 3:2 2:14"/>
    </vehicle>
    <vehicle id="528" depart="369.60">
        <route edges="7:5 5:3 3:2 2:1 1:12"/>
    </vehicle>
    <vehicle id="530" depart="371.00">
        <route edges="11:10 10:0 0:1 1:2 2:3 3:16"/>
    </vehicle>
    <vehicle id="532" depart="372.40">
        <route edges="6:4 4:0 0:8 8:9"/>
    </vehicle>
    <vehicle id="533" depart="373.10">
        <route edges="11:10 10:0 0:8 8:9"/>
    </vehicle>
    <vehicle id="535" depart="374.50">
        <route edges="6:4 4:0 0:1 1:12 12:13"/>
    </vehicle>
    <vehicle id="539" depart="377.30">