<?xml version="1.0" encoding="UTF-8"?>

<!-- generated on Thu Oct 23 22:34:50 2014 by SUMO duarouter Version 0.18.0
<?xml version="1.0" encoding="UTF-8"?>

<configuration xmlns:xsi="http://www.w3.org/2001/XMLSchema-instance" xsi:noNamespaceSchemaLocation="http://sumo.sf.net/xsd/duarouterConfiguration.xsd">

    <input>
        <net-file value="corridor.net.xml"/>
        <trip-files value="experimentos/corridor.p1.0.6.trips.xml"/>
    </input>

    <output>
        <output-file value="experimentos/corridor.p1.0.6.rou.xml"/>
    </output>

    <processing>
        <ignore-errors value="true"/>
    </processing>

    <random_number>
        <random value="true"/>
    </random_number>

</configuration>
-->

<routes xmlns:xsi="http://www.w3.org/2001/XMLSchema-instance" xsi:noNamespaceSchemaLocation="http://sumo.sf.net/xsd/routes_file.xsd">
    <vehicle id="1" depart="1.00">
        <route edges="4:0 0:1 1:2 2:3 3:16 16:17"/>
    </vehicle>
    <vehicle id="5" depart="5.00">
        <route edges="15:14 14:2 2:1 1:0 0:4 4:6"/>
    </vehicle>
    <vehicle id="7" depart="7.00">
        <route edges="9:8 8:0 0:1 1:2 2:14 14:15"/>
    </vehicle>
    <vehicle id="9" depart="9.00">
        <route edges="7:5 5:3 3:2 2:1 1:0 0:4"/>
    </vehicle>
    <vehicle id="10" depart="10.00">
        <route edges="17:16 16:3 3:2 2:1 1:12 12:13"/>
    </vehicle>
    <vehicle id="12" depart="12.00">
        <route edges="15:14 14:2 2:1 1:0"/>
    </vehicle>
    <vehicle id="13" depart="13.00">
        <route edges="6:4 4:0 0:1 1:2 2:3 3:5 5:7"/>
    </vehicle>
    <vehicle id="14" depart="14.00">
        <route edges="3:5"/>
    </vehicle>
    <vehicle id="16" depart="16.00">
        <route edges="7:5 5:3 3:2 2:14 14:15"/>
    </vehicle>
    <vehicle id="17" depart="17.00">
        <route edges="15:14 14:2 2:3 3:5 5:7"/>
    </vehicle>
    <vehicle id="18" depart="18.00">
        <route edges="6:4 4:0 0:1 1:12 12:13"/>
    </vehicle>
    <vehicle id="19" depart="19.00">
        <route edges="17:16 16:3 3:2 2:1 1:0 0:4"/>
    </vehicle>
    <vehicle id="20" depart="20.00">
        <route edges="6:4 4:0 0:1 1:2 2:14"/>
    </vehicle>
    <vehicle id="21" depart="21.00">
        <route edges="17:16 16:3 3:5 5:7"/>
    </vehicle>
    <vehicle id="22" depart="22.00">
        <route edges="4:0 0:1 1:2 2:3 3:5 5:7"/>
    </vehicle>
    <vehicle id="23" depart="23.00">
        <route edges="10:0 0:1 1:2 2:3 3:5"/>
    </vehicle>
    <vehicle id="25" depart="25.00">
        <route edges="0:4 4:6"/>
    </vehicle>
    <vehicle id="26" depart="26.00">
        <route edges="5:3 3:2 2:1 1:0 0:10 10:11"/>
    </vehicle>
    <vehicle id="28" depart="28.00">
        <route edges="7:5 5:3 3:2 2:1 1:12 12:13"/>
    </vehicle>
    <vehicle id="29" depart="29.00">
        <route edges="9:8 8:0 0:1 1:12 12:13"/>
    </vehicle>
    <vehicle id="30" depart="30.00">
        <route edges="13:12 12:1 1:0 0:4 4:6"/>
    </vehicle>
    <vehicle id="31" depart="31.00">
        <route edges="9:8 8:0 0:4 4:6"/>
    </vehicle>
    <vehicle id="33" depart="33.00">
        <route edges="11:10 10:0 0:4 4:6"/>
    </vehicle>
    <vehicle id="35" depart="35.00">
        <route edges="13:12 12:1 1:2 2:3 3:18 18:19"/>
    </vehicle>
    <vehicle id="36" depart="36.00">
        <route edges="7:5 5:3 3:2"/>
    </vehicle>
    <vehicle id="39" depart="39.00">
        <route edges="0:4 4:6"/>
    </vehicle>
    <vehicle id="40" depart="40.00">
        <route edges="15:14 14:2 2:3 3:18 18:19"/>
    </vehicle>
    <vehicle id="41" depart="41.00">
        <route edges="18:3 3:2 2:1 1:12 12:13"/>
    </vehicle>
    <vehicle id="44" depart="44.00">
        <route edges="6:4 4:0 0:10 10:11"/>
    </vehicle>
    <vehicle id="46" depart="46.00">
        <route edges="2:3 3:18"/>
    </vehicle>
    <vehicle id="49" depart="49.00">
        <route edges="17:16 16:3 3:5"/>
    </vehicle>
    <vehicle id="56" depart="56.00">
        <route edges="13:12 12:1 1:2 2:3 3:5"/>
    </vehicle>
    <vehicle id="58" depart="58.00">
        <route edges="18:3 3:5 5:7"/>
    </vehicle>
    <vehicle id="59" depart="59.00">
        <route edges="12:1 1:0 0:8 8:9"/>
    </vehicle>
    <vehicle id="60" depart="60.00">
        <route edges="10:0 0:4 4:6"/>
    </vehicle>
    <vehicle id="63" depart="63.00">
        <route edges="0:1 1:12 12:13"/>
    </vehicle>
    <vehicle id="64" depart="64.00">
        <route edges="18:3 3:2 2:1 1:0 0:8"/>
    </vehicle>
    <vehicle id="68" depart="68.00">
        <route edges="16:3 3:2 2:1 1:0 0:8"/>
    </vehicle>
    <vehicle id="69" depart="69.00">
        <route edges="6:4 4:0 0:1 1:2 2:3 3:18 18:19"/>
    </vehicle>
    <vehicle id="70" depart="70.00">
        <route edges="6:4 4:0 0:1 1:12 12:13"/>
    </vehicle>
    <vehicle id="72" depart="72.00">
        <route edges="3:2 2:1 1:0 0:4 4:6"/>
    </vehicle>
    <vehicle id="73" depart="73.00">
        <route edges="7:5 5:3 3:16 16:17"/>
    </vehicle>
    <vehicle id="74" depart="74.00">
        <route edges="1:2"/>
    </vehicle>
    <vehicle id="77" depart="77.00">
        <route edges="2:3"/>
    </vehicle>
    <vehicle id="78" depart="78.00">
        <route edges="1:0 0:4 4:6"/>
    </vehicle>
    <vehicle id="86" depart="86.00">
        <route edges="19:18 18:3 3:16 16:17"/>
    </vehicle>
    <vehicle id="87" depart="87.00">
        <route edges="3:2 2:1"/>
    </vehicle>
    <vehicle id="90" depart="90.00">
        <route edges="6:4 4:0 0:10 10:11"/>
    </vehicle>
    <vehicle id="91" depart="91.00">
        <route edges="13:12 12:1 1:0 0:4"/>
    </vehicle>
    <vehicle id="93" depart="93.00">
        <route edges="7:5 5:3 3:18"/>
    </vehicle>
    <vehicle id="94" depart="94.00">
        <route edges="9:8 8:0 0:1"/>
    </vehicle>
    <vehicle id="96" depart="96.00">
        <route edges="1:2 2:3 3:5 5:7"/>
    </vehicle>
    <vehicle id="97" depart="97.00">
        <route edges="4:0 0:1 1:2 2:3 3:5"/>
    </vehicle>
    <vehicle id="101" depart="101.00">
        <route edges="15:14 14:2 2:3 3:5 5:7"/>
    </vehicle>
    <vehicle id="108" depart="108.00">
        <route edges="16:3 3:5 5:7"/>
    </vehicle>
    <vehicle id="109" depart="109.00">
        <route edges="16:3 3:2 2:1 1:0 0:4 4:6"/>
    </vehicle>
    <vehicle id="110" depart="110.00">
        <route edges="5:3 3:18 18:19"/>
    </vehicle>
    <vehicle id="114" depart="114.00">
        <route edges="4:0 0:10 10:11"/>
    </vehicle>
    <vehicle id="116" depart="116.00">
        <route edges="13:12 12:1 1:2 2:3 3:18"/>
    </vehicle>
    <vehicle id="120" depart="120.00">
        <route edges="15:14 14:2 2:3 3:18"/>
    </vehicle>
    <vehicle id="123" depart="123.00">
        <route edges="13:12 12:1 1:2 2:3 3:18 18:19"/>
    </vehicle>
    <vehicle id="124" depart="124.00">
        <route edges="11:10 10:0 0:1"/>
    </vehicle>
    <vehicle id="126" depart="126.00">
        <route edges="15:14 14:2 2:3 3:16 16:17"/>
    </vehicle>
    <vehicle id="128" depart="128.00">
        <route edges="6:4 4:0 0:1 1:2 2:3 3:5 5:7"/>
    </vehicle>
    <vehicle id="132" depart="132.00">
        <route edges="15:14 14:2 2:1"/>
    </vehicle>
    <vehicle id="133" depart="133.00">
        <route edges="9:8 8:0 0:1 1:12"/>
    </vehicle>
    <vehicle id="134" depart="134.00">
        <route edges="11:10 10:0 0:1 1:12 12:13"/>
    </vehicle>
    <vehicle id="135" depart="135.00">
        <route edges="7:5 5:3 3:18"/>
    </vehicle>
    <vehicle id="136" depart="136.00">
        <route edges="6:4 4:0 0:10 10:11"/>
    </vehicle>
    <vehicle id="139" depart="139.00">
        <route edges="9:8 8:0 0:1 1:2 2:3 3:16 16:17"/>
    </vehicle>
    <vehicle id="140" depart="140.00">
        <route edges="4:0 0:1 1:2 2:3 3:18 18:19"/>
    </vehicle>
    <vehicle id="143" depart="143.00">
        <route edges="6:4 4:0 0:1 1:2 2:3"/>
    </vehicle>
    <vehicle id="145" depart="145.00">
        <route edges="8:0 0:1 1:2 2:3"/>
    </vehicle>
    <vehicle id="148" depart="148.00">
        <route edges="19:18 18:3 3:2 2:1 1:0 0:4 4:6"/>
    </vehicle>
    <vehicle id="150" depart="150.00">
        <route edges="8:0 0:1 1:12 12:13"/>
    </vehicle>
    <vehicle id="151" depart="151.00">
        <route edges="7:5 5:3"/>
    </vehicle>
    <vehicle id="152" depart="152.00">
        <route edges="13:12 12:1 1:2 2:3 3:5 5:7"/>
    </vehicle>
    <vehicle id="154" depart="154.00">
        <route edges="15:14 14:2 2:3 3:5 5:7"/>
    </vehicle>
    <vehicle id="155" depart="155.00">
        <route edges="6:4 4:0 0:1 1:12 12:13"/>
    </vehicle>
    <vehicle id="156" depart="156.00">
        <route edges="1:2 2:3 3:5 5:7"/>
    </vehicle>
    <vehicle id="157" depart="157.00">
        <route edges="11:10 10:0 0:1 1:2 2:14 14:15"/>
    </vehicle>
    <vehicle id="159" depart="159.00">
        <route edges="18:3 3:2 2:1 1:12 12:13"/>
    </vehicle>
    <vehicle id="161" depart="161.00">
        <route edges="9:8 8:0 0:1 1:2 2:3 3:16"/>
    </vehicle>
    <vehicle id="162" depart="162.00">
        <route edges="4:0 0:1 1:12 12:13"/>
    </vehicle>
    <vehicle id="164" depart="164.00">
        <route edges="11:10 10:0 0:1 1:2 2:3 3:5 5:7"/>
    </vehicle>
    <vehicle id="165" depart="165.00">
        <route edges="13:12 12:1 1:2 2:3 3:5 5:7"/>
    </vehicle>
    <vehicle id="166" depart="166.00">
        <route edges="6:4 4:0 0:1 1:2 2:3 3:16"/>
    </vehicle>
    <vehicle id="168" depart="168.00">
        <route edges="6:4 4:0 0:8"/>
    </vehicle>
    <vehicle id="170" depart="170.00">
        <route edges="3:2"/>
    </vehicle>
    <vehicle id="172" depart="172.00">
        <route edges="13:12 12:1"/>
    </vehicle>
    <vehicle id="173" depart="173.00">
        <route edges="6:4 4:0 0:10 10:11"/>
    </vehicle>
    <vehicle id="174" depart="174.00">
        <route edges="17:16 16:3 3:2 2:1 1:0 0:8"/>
    </vehicle>
    <vehicle id="175" depart="175.00">
        <route edges="0:4 4:6"/>
    </vehicle>
    <vehicle id="178" depart="178.00">
        <route edges="17:16 16:3 3:2 2:1 1:0 0:4 4:6"/>
    </vehicle>
    <vehicle id="179" depart="179.00">
        <route edges="0:1 1:2 2:3 3:5"/>
    </vehicle>
    <vehicle id="182" depart="182.00">
        <route edges="2:1 1:12 12:13"/>
    </vehicle>
    <vehicle id="184" depart="184.00">
        <route edges="0:1 1:2 2:3 3:5 5:7"/>
    </vehicle>
    <vehicle id="186" depart="186.00">
        <route edges="17:16 16:3 3:5"/>
    </vehicle>
    <vehicle id="188" depart="188.00">
        <route edges="6:4 4:0 0:1 1:2 2:3 3:16"/>
    </vehicle>
    <vehicle id="189" depart="189.00">
        <route edges="17:16 16:3 3:2 2:1 1:0 0:8"/>
    </vehicle>
    <vehicle id="195" depart="195.00">
        <route edges="6:4 4:0 0:8 8:9"/>
    </vehicle>
    <vehicle id="198" depart="198.00">
        <route edges="0:8 8:9"/>
    </vehicle>
    <vehicle id="200" depart="200.00">
        <route edges="4:0"/>
    </vehicle>
    <vehicle id="201" depart="201.00">
        <route edges="9:8 8:0 0:1 1:2 2:3 3:5"/>
    </vehicle>
    <vehicle id="202" depart="202.00">
        <route edges="17:16 16:3 3:5"/>
    </vehicle>
    <vehicle id="207" depart="207.00">
        <route edges="7:5 5:3"/>
    </vehicle>
    <vehicle id="208" depart="208.00">
        <route edges="0:8 8:9"/>
    </vehicle>
    <vehicle id="211" depart="211.00">
        <route edges="13:12 12:1 1:2 2:3"/>
    </vehicle>
    <vehicle id="213" depart="213.00">
        <route edges="2:1 1:0 0:4"/>
    </vehicle>
    <vehicle id="214" depart="214.00">
        <route edges="9:8 8:0 0:1"/>
    </vehicle>
    <vehicle id="215" depart="215.00">
        <route edges="7:5 5:3 3:2 2:1 1:0 0:4 4:6"/>
    </vehicle>
    <vehicle id="216" depart="216.00">
        <route edges="7:5 5:3 3:2 2:1 1:0 0:8 8:9"/>
    </vehicle>
    <vehicle id="217" depart="217.00">
        <route edges="13:12 12:1 1:2 2:3 3:16 16:17"/>
    </vehicle>
    <vehicle id="221" depart="221.00">
        <route edges="6:4 4:0 0:1 1:12 12:13"/>
    </vehicle>
    <vehicle id="225" depart="225.00">
        <route edges="13:12 12:1 1:2"/>
    </vehicle>
    <vehicle id="228" depart="228.00">
        <route edges="0:1 1:2 2:3 3:5"/>
    </vehicle>
    <vehicle id="229" depart="229.00">
        <route edges="2:1 1:0 0:4 4:6"/>
    </vehicle>
    <vehicle id="232" depart="232.00">
        <route edges="3:2 2:1 1:0 0:8 8:9"/>
    </vehicle>
    <vehicle id="234" depart="234.00">
        <route edges="14:2 2:1 1:0 0:8"/>
    </vehicle>
    <vehicle id="235" depart="235.00">
        <route edges="6:4 4:0"/>
    </vehicle>
    <vehicle id="239" depart="239.00">
        <route edges="13:12 12:1"/>
    </vehicle>
    <vehicle id="240" depart="240.00">
        <route edges="17:16 16:3 3:5 5:7"/>
    </vehicle>
    <vehicle id="242" depart="242.00">
        <route edges="17:16 16:3 3:2 2:1 1:0 0:4 4:6"/>
    </vehicle>
    <vehicle id="244" depart="244.00">
        <route edges="18:3 3:2"/>
    </vehicle>
    <vehicle id="255" depart="255.00">
        <route edges="2:1 1:0 0:4 4:6"/>
    </vehicle>
    <vehicle id="256" depart="256.00">
        <route edges="9:8 8:0"/>
    </vehicle>
    <vehicle id="258" depart="258.00">
        <route edges="7:5 5:3 3:2 2:1 1:0 0:8 8:9"/>
    </vehicle>
    <vehicle id="260" depart="260.00">
        <route edges="18:3 3:2 2:1 1:0 0:4 4:6"/>
    </vehicle>
    <vehicle id="261" depart="261.00">
        <route edges="17:16 16:3 3:18"/>
    </vehicle>
    <vehicle id="266" depart="266.00">
        <route edges="17:16 16:3 3:2 2:1 1:0 0:4 4:6"/>
    </vehicle>
    <vehicle id="267" depart="267.00">
        <route edges="6:4 4:0 0:1 1:2 2:3 3:16 16:17"/>
    </vehicle>
    <vehicle id="268" depart="268.00">
        <route edges="15:14 14:2 2:3"/>
    </vehicle>
    <vehicle id="269" depart="269.00">
        <route edges="15:14 14:2 2:3 3:5 5:7"/>
    </vehicle>
    <vehicle id="270" depart="270.00">
        <route edges="5:3 3:2 2:14 14:15"/>
    </vehicle>
    <vehicle id="271" depart="271.00">
        <route edges="19:18 18:3 3:2"/>
    </vehicle>
    <vehicle id="272" depart="272.00">
        <route edges="19:18 18:3 3:5"/>
    </vehicle>
    <vehicle id="274" depart="274.00">
        <route edges="7:5 5:3 3:2 2:1 1:0 0:4 4:6"/>
    </vehicle>
    <vehicle id="277" depart="277.00">
        <route edges="4:0 0:1 1:12 12:13"/>
    </vehicle>
    <vehicle id="278" depart="278.00">
        <route edges="16:3 3:2 2:1 1:0"/>
    </vehicle>
    <vehicle id="279" depart="279.00">
        <route edges="0:1 1:2 2:3"/>
    </vehicle>
    <vehicle id="281" depart="281.00">
        <route edges="12:1 1:0"/>
    </vehicle>
    <vehicle id="282" depart="282.00">
        <route edges="3:2 2:1 1:0 0:10"/>
    </vehicle>
    <vehicle id="285" depart="285.00">
        <route edges="7:5 5:3 3:18"/>
    </vehicle>
    <vehicle id="287" depart="287.00">
        <route edges="5:3 3:18 18:19"/>
    </vehicle>
    <vehicle id="288" depart="288.00">
        <route edges="0:1 1:2 2:3 3:5 5:7"/>
    </vehicle>
    <vehicle id="291" depart="291.00">
        <route edges="19:18 18:3 3:16 16:17"/>
    </vehicle>
    <vehicle id="292" depart="292.00">
        <route edges="11:10 10:0 0:1 1:2 2:14 14:15"/>
    </vehicle>
    <vehicle id="294" depart="294.00">
        <route edges="5:3 3:16 16:17"/>
    </vehicle>
    <vehicle id="296" depart="296.00">
        <route edges="11:10 10:0 0:1 1:2 2:3 3:16"/>
    </vehicle>
    <vehicle id="297" depart="297.00">
        <route edges="19:18 18:3 3:2 2:1 1:0 0:8"/>
    </vehicle>
    <vehicle id="298" depart="298.00">
        <route edges="15:14 14:2 2:3 3:5"/>
    </vehicle>
    <vehicle id="300" depart="300.00">
        <route edges="7:5 5:3 3:16 16:17"/>
    </vehicle>
    <vehicle id="303" depart="303.00">
        <route edges="6:4 4:0 0:1 1:2"/>
    </vehicle>
    <vehicle id="304" depart="304.00">
        <route edges="19:18 18:3 3:5 5:7"/>
    </vehicle>
    <vehicle id="307" depart="307.00">
        <route edges="15:14 14:2 2:1 1:12 12:13"/>
    </vehicle>
    <vehicle id="314" depart="314.00">
        <route edges="15:14 14:2 2:3 3:16 16:17"/>
    </vehicle>
    <vehicle id="320" depart="320.00">
        <route edges="2:3 3:5 5:7"/>
    </vehicle>
    <vehicle id="322" depart="322.00">
        <route edges="7:5 5:3 3:2 2:14 14:15"/>
    </vehicle>
    <vehicle id="326" depart="326.00">
        <route edges="7:5 5:3 3:2 2:1 1:0 0:4 4:6"/>
    </vehicle>
    <vehicle id="328" depart="328.00">
        <route edges="7:5 5:3 3:2 2:1 1:0 0:4 4:6"/>
    </vehicle>
    <vehicle id="329" depart="329.00">
        <route edges="17:16 16:3 3:5"/>
    </vehicle>
    <vehicle id="330" depart="330.00">
        <route edges="10:0 0:1 1:12 12:13"/>
    </vehicle>
    <vehicle id="332" depart="332.00">
        <route edges="11:10 10:0 0:1 1:2 2:3 3:5"/>
    </vehicle>
    <vehicle id="333" depart="333.00">
        <route edges="8:0 0:1 1:2 2:3 3:5 5:7"/>
    </vehicle>
    <vehicle id="334" depart="334.00">
        <route edges="1:2 2:3 3:5 5:7"/>
    </vehicle>
    <vehicle id="335" depart="335.00">
        <route edges="15:14 14:2 2:3 3:5"/>
    </vehicle>
    <vehicle id="336" depart="336.00">
        <route edges="7:5 5:3 3:2 2:1 1:0 0:4 4:6"/>
    </vehicle>
    <vehicle id="339" depart="339.00">
        <route edges="13:12 12:1 1:0 0:4 4:6"/>
    </vehicle>
    <vehicle id="343" depart="343.00">
        <route edges="12:1 1:0 0:4 4:6"/>
    </vehicle>
    <vehicle id="344" depart="344.00">
        <route edges="17:16 16:3 3:5"/>
    </vehicle>
    <vehicle id="345" depart="345.00">
        <route edges="10:0 0:1 1:2 2:14 14:15"/>
    </vehicle>
    <vehicle id="348" depart="348.00">
        <route edges="11:10 10:0 0:1 1:2 2:3 3:5 5:7"/>
    </vehicle>
    <vehicle id="350" depart="350.00">
        <route edges="15:14 14:2 2:1 1:0 0:10 10:11"/>
    </vehicle>
    <vehicle id="351" depart="351.00">
        <route edges="19:18 18:3 3:2 2:1"/>
    </vehicle>
    <vehicle id="355" depart="355.00">
        <route edges="7:5 5:3 3:16"/>
    </vehicle>
    <vehicle id="357" depart="357.00">
        <route edges="17:16 16:3 3:2 2:14"/>
    </vehicle>
    <vehicle id="359" depart="359.00">
        <route edges="17:16 16:3 3:2 2:1 1:0 0:10 10:11"/>
    </vehicle>
    <vehicle id="360" depart="360.00">
        <route edges="19:18 18:3 3:2 2:1 1:0 0:8 8:9"/>
    </vehicle>
    <vehicle id="364" depart="364.00">
        <route edges="14:2 2:1 1:0 0:4 4:6"/>
    </vehicle>
    <vehicle id="366" depart="366.00">
        <route edges="3:2 2:1 1:0 0:8 8:9"/>
    </vehicle>
    <vehicle id="372" depart="372.00">
        <route edges="10:0 0:1 1:2 2:3 3:5 5:7"/>
    </vehicle>
    <vehicle id="374" depart="374.00">
        <route edges="7:5 5:3 3:2 2:1 1:0 0:8 8:9"/>
    </vehicle>
    <vehicle id="377" depart="377.00">
        <route edges="15:14 14:2 2:1 1:0"/>
    </vehicle>
    <vehicle id="379" depart="379.00">
        <route edges="3:2 2:1 1:12 12:13"/>
    </vehicle>
    <vehicle id="380" depart="380.00">
        <route edges="7:5 5:3"/>
    </vehicle>
    <vehicle id="381" depart="381.00">
        <route edges="6:4 4:0 0:1 1:2 2:3 3:5 5:7"/>
    </vehicle>
    <vehicle id="382" depart="382.00">
        <route edges="7:5 5:3 3:2 2:1 1:0 0:10 10:11"/>
    </vehicle>
    <vehicle id="386" depart="386.00">
        <route edges="7:5 5:3 3:2 2:1 1:0 0:10 10:11"/>
    </vehicle>
    <vehicle id="388" depart="388.00">
        <route edges="17:16 16:3 3:2 2:1 1:0 0:10 10:11"/>
    </vehicle>
    <vehicle id="389" depart="389.00">
        <route edges="2:3 3:16 16:17"/>
    </vehicle>
    <vehicle id="391" depart="391.00">
        <route edges="3:2 2:1 1:12 12:13"/>
    </vehicle>
    <vehicle id="394" depart="394.00">
        <route edges="11:10 10:0 0:1 1:2 2:3 3:5 5:7"/>
    </vehicle>
    <vehicle id="395" depart="395.00">
        <route edges="13:12 12:1 1:0 0:8 8:9"/>
    </vehicle>
    <vehicle id="396" depart="396.00">
        <route edges="7:5 5:3 3:16 16:17"/>
    </vehicle>
    <vehicle id="397" depart="397.00">
        <route edges="1:12 12:13"/>
    </vehicle>
    <vehicle id="400" depart="400.00">
        <route edges="15:14 14:2 2:3 3:5"/>
    </vehicle>
    <vehicle id="401" depart="401.00">
        <route edges="17:16 16:3 3:2 2:1 1:0 0:10 10:11"/>
    </vehicle>
    <vehicle id="403" depart="403.00">
        <route edges="7:5 5:3 3:2 2:1 1:0 0:4"/>
    </vehicle>
    <vehicle id="405" depart="405.00">
        <route edges="19:18 18:3 3:2 2:1 1:0 0:4"/>
    </vehicle>
    <vehicle id="408" depart="408.00">
        <route edges="12:1 1:0"/>
    </vehicle>
    <vehicle id="410" depart="410.00">
        <route edges="9:8 8:0 0:1 1:12 12:13"/>
    </vehicle>
    <vehicle id="412" depart="412.00">
        <route edges="13:12 12:1 1:0 0:8 8:9"/>
    </vehicle>
    <vehicle id="417" depart="417.00">
        <route edges="0:1 1:2 2:3 3:18 18:19"/>
    </vehicle>
    <vehicle id="418" depart="418.00">
        <route edges="15:14 14:2 2:3 3:16 16:17"/>
    </vehicle>
    <vehicle id="419" depart="419.00">
        <route edges="4:0"/>
    </vehicle>
    <vehicle id="420" depart="420.00">
        <route edges="19:18 18:3 3:2 2:14 14:15"/>
    </vehicle>
    <vehicle id="425" depart="425.00">
        <route edges="0:1 1:2 2:14"/>
    </vehicle>
    <vehicle id="427" depart="427.00">
        <route edges="6:4 4:0 0:1 1:2 2:3"/>
    </vehicle>
    <vehicle id="428" depart="428.00">
        <route edges="14:2 2:1 1:0 0:10"/>
    </vehicle>
    <vehicle id="429" depart="429.00">
        <route edges="13:12 12:1 1:0"/>
    </vehicle>
    <vehicle id="432" depart="432.00">
        <route edges="7:5 5:3 3:2 2:1 1:0 0:8 8:9"/>
    </vehicle>
    <vehicle id="434" depart="434.00">
        <route edges="3:2 2:1 1:12"/>
    </vehicle>
    <vehicle id="435" depart="435.00">
        <route edges="1:2 2:3 3:5 5:7"/>
    </vehicle>
    <vehicle id="436" depart="436.00">
        <route edges="7:5 5:3"/>
    </vehicle>
    <vehicle id="437" depart="437.00">
        <route edges="7:5 5:3 3:2 2:1 1:0 0:4 4:6"/>
    </vehicle>
    <vehicle id="438" depart="438.00">
        <route edges="9:8 8:0 0:10 10:11"/>
    </vehicle>
    <vehicle id="439" depart="439.00">
        <route edges="12:1 1:2 2:3 3:5 5:7"/>
    </vehicle>
    <vehicle id="440" depart="440.00">
        <route edges="6:4 4:0 0:8 8:9"/>
    </vehicle>
    <vehicle id="441" depart="441.00">
        <route edges="19:18 18:3 3:2 2:14 14:15"/>
    </vehicle>
    <vehicle id="443" depart="443.00">
        <route edges="8:0 0:1 1:2 2:14 14:15"/>
    </vehicle>
    <vehicle id="444" depart="444.00">
        <route edges="3:2 2:1 1:0 0:8 8:9"/>
    </vehicle>
    <vehicle id="445" depart="445.00">
        <route edges="6:4 4:0 0:1 1:2 2:3 3:5 5:7"/>
    </vehicle>
    <vehicle id="446" depart="446.00">
        <route edges="9:8 8:0 0:1 1:2"/>
    </vehicle>
    <vehicle id="449" depart="449.00">
        <route edges="7:5 5:3 3:2 2:1 1:0 0:4 4:6"/>
    </vehicle>
    <vehicle id="451" depart="451.00">
        <route edges="7:5 5:3 3:16 16:17"/>
    </vehicle>
    <vehicle id="452" depart="452.00">
        <route edges="8:0 0:4 4:6"/>
    </vehicle>
    <vehicle id="455" depart="455.00">
        <route edges="9:8 8:0 0:4 4:6"/>
    </vehicle>
    <vehicle id="458" depart="458.00">
        <route edges="6:4 4:0 0:1 1:12 12:13"/>
    </vehicle>
    <vehicle id="459" depart="459.00">
        <route edges="7:5 5:3 3:2 2:14 14:15"/>
    </vehicle>
    <vehicle id="461" depart="461.00">
        <route edges="0:4 4:6"/>
    </vehicle>
    <vehicle id="463" depart="463.00">
        <route edges="11:10 10:0 0:4 4:6"/>
    </vehicle>
    <vehicle id="464" depart="464.00">
        <route edges="19:18 18:3 3:2 2:1 1:0 0:4"/>
    </vehicle>
    <vehicle id="465" depart="465.00">
        <route edges="19:18 18:3 3:2 2:1"/>
    </vehicle>
    <vehicle id="468" depart="468.00">
        <route edges="15:14 14:2 2:1 1:0 0:10"/>
    </vehicle>
    <vehicle id="469" depart="469.00">
        <route edges="9:8 8:0 0:1 1:2 2:3"/>
    </vehicle>
    <vehicle id="470" depart="470.00">
        <route edges="9:8 8:0 0:1 1:2 2:3 3:5"/>
    </vehicle>
    <vehicle id="471" depart="471.00">
        <route edges="17:16 16:3 3:2 2:1 1:0 0:4 4:6"/>
    </vehicle>
    <vehicle id="475" depart="475.00">
        <route edges="7:5 5:3 3:18 18:19"/>
    </vehicle>
    <vehicle id="477" depart="477.00">
        <route edges="13:12 12:1 1:2 2:3"/>
    </vehicle>
    <vehicle id="478" depart="478.00">
        <route edges="15:14 14:2 2:1 1:0 0:4 4:6"/>
    </vehicle>
    <vehicle id="479" depart="479.00">
        <route edges="0:1 1:2 2:14 14:15"/>
    </vehicle>
    <vehicle id="480" depart="480.00">
        <route edges="18:3 3:5 5:7"/>
    </vehicle>
    <vehicle id="481" depart="481.00">
        <route edges="4:0 0:1 1:2 2:3 3:5 5:7"/>
    </vehicle>
    <vehicle id="487" depart="487.00">
        <route edges="19:18 18:3 3:2 2:1 1:0 0:4 4:6"/>
    </vehicle>
    <vehicle id="488" depart="488.00">
        <route edges="2:3 3:18 18:19"/>
    </vehicle>
    <vehicle id="489" depart="489.00">
        <route edges="13:12 12:1 1:0 0:4 4:6"/>
    </vehicle>
    <vehicle id="490" depart="490.00">
        <route edges="8:0 0:1 1:2 2:14"/>
    </vehicle>
    <vehicle id="493" depart="493.00">
        <route edges="5:3 3:2 2:1 1:12 12:13"/>
    </vehicle>
    <vehicle id="494" depart="494.00">
        <route edges="4:0 0:1 1:2 2:3 3:18 18:19"/>
    </vehicle>
    <vehicle id="495" depart="495.00">
        <route edges="13:12 12:1 1:0 0:4 4:6"/>
    </vehicle>
    <vehicle id="500" depart="500.00">
        <route edges="19:18 18:3 3:2 2:1 1:0 0:8 8:9"/>
    </vehicle>
    <vehicle id="501" depart="501.00">
        <route edges="6:4 4:0 0:1 1:12"/>
    </vehicle>
    <vehicle id="502" depart="502.00">
        <route edges="6:4 4:0 0:10 10:11"/>
    </vehicle>
    <vehicle id="503" depart="503.00">
        <route edges="19:18 18:3 3:16 16:17"/>
    </vehicle>
    <vehicle id="506" depart="506.00">
        <route edges="11:10 10:0 0:1 1:2 2:3 3:5 5:7"/>
    </vehicle>
    <vehicle id="507" depart="507.00">
        <route edges="7:5 5:3 3:2 2:1 1:0 0:4 4:6"/>
    </vehicle>
    <vehicle id="508" depart="508.00">
        <route edges="7:5 5:3 3:2 2:14 14:15"/>
    </vehicle>
    <vehicle id="509" depart="509.00">
        <route edges="7:5 5:3 3:2 2:1 1:12 12:13"/>
    </vehicle>
    <vehicle id="510" depart="510.00">
        <route edges="17:16 16:3 3:2 2:1 1:0 0:4 4:6"/>
    </vehicle>
    <vehicle id="511" depart="511.00">
        <route edges="9:8 8:0 0:1 1:2 2:14 14:15"/>
    </vehicle>
    <vehicle id="513" depart="513.00">
        <route edges="17:16 16:3 3:2 2:1 1:12 12:13"/>
    </vehicle>
    <vehicle id="514" depart="514.00">
        <route edges="6:4 4:0 0:10 10:11"/>
    </vehicle>
    <vehicle id="518" depart="518.00">
        <route edges="9:8 8:0 0:1 1:2 2:3 3:5 5:7"/>
    </vehicle>
    <vehicle id="519" depart="519.00">
        <route edges="19:18 18:3 3:2 2:1 1:12 12:13"/>
    </vehicle>
    <vehicle id="520" depart="520.00">
        <route edges="14:2 2:1 1:0 0:10 10:11"/>
    </vehicle>
    <vehicle id="521" depart="521.00">
        <route edges="17:16 16:3"/>
    </vehicle>
    <vehicle id="522" depart="522.00">
        <route edges="13:12 12:1 1:0 0:4 4:6"/>
    </vehicle>
    <vehicle id="526" depart="526.00">
        <route edges="15:14 14:2 2:1 1:0 0:10"/>
    </vehicle>
    <vehicle id="527" depart="527.00">
        <route edges="6:4 4:0 0:1 1:2 2:14 14:15"/>
    </vehicle>
    <vehicle id="528" depart="528.00">
        <route edges="6:4 4:0 0:10"/>
    </vehicle>
    <vehicle id="530" depart="530.00">
        <route edges="16:3 3:2 2:1 1:0 0:8"/>
    </vehicle>
    <vehicle id="531" depart="531.00">
        <route edges="6:4 4:0 0:1 1:2 2:3 3:5 5:7"/>
    </vehicle>
    <vehicle id="533" depart="533.00">
        <route edges="7:5 5:3 3:2 2:1 1:0 0:4"/>
    </vehicle>
    <vehicle id="534" depart="534.00">
        <route edges="0:1 1:2 2:3 3:5"/>
    </vehicle>
    <vehicle id="535" depart="535.00">
        <route edges="2:3 3:18 18:19"/>
    </vehicle>
    <vehicle id="537" depart="537.00">
        <route edges="9:8 8:0 0:4 4:6"/>
    </vehicle>
    <vehicle id="541" depart="541.00">
        <route edges="0:1 1:2 2:3 3:16 16:17"/>
    </vehicle>
    <vehicle id="542" depart="542.00">
        <route edges="18:3 3:2 2:1 1:12 12:13"/>
    </vehicle>
    <vehicle id="545" depart="545.00">
        <route edges="17:16 16:3 3:2 2:1 1:0 0:4 4:6"/>
    </vehicle>
    <vehicle id="546" depart="546.00">
        <route edges="11:10 10:0 0:1 1:2 2:3 3:16 16:17"/>
    </vehicle>
    <vehicle id="547" depart="547.00">
        <route edges="15:14 14:2 2:3 3:18"/>
    </vehicle>
    <vehicle id="550" depart="550.00">
        <route edges="1:0 0:4 4:6"/>
    </vehicle>
    <vehicle id="552" depart="552.00">
        <route edges="17:16 16:3 3:2 2:1 1:12"/>
    </vehicle>
    <vehicle id="553" depart="553.00">
        <route edges="3:18 18:19"/>
    </vehicle>
    <vehicle id="554" depart="554.00">
        <route edges="3:2 2:1 1:0 0:10"/>
    </vehicle>
    <vehicle id="555" depart="555.00">
        <route edges="7:5 5:3 3:2 2:1 1:0 0:10"/>
    </vehicle>
    <vehicle id="557" depart="557.00">
        <route edges="6:4 4:0 0:1 1:2 2:14 14:15"/>
    </vehicle>
    <vehicle id="559" depart="559.00">
        <route edges="6:4 4:0 0:8 8:9"/>
    </vehicle>
    <vehicle id="564" depart="564.00">
        <route edges="3:2 2:14 14:15"/>
    </vehicle>
    <vehicle id="565" depart="565.00">
        <route edges="9:8 8:0 0:4"/>
    </vehicle>
    <vehicle id="568" depart="568.00">
        <route edges="0:1 1:2 2:3"/>
    </vehicle>
    <vehicle id="569" depart="569.00">
        <route edges="13:12 12:1 1:2 2:3"/>
    </vehicle>
    <vehicle id="570" depart="570.00">
        <route edges="7:5 5:3 3:2 2:14 14:15"/>
    </vehicle>
    <vehicle id="572" depart="572.00">
        <route edges="7:5 5:3 3:18 18:19"/>
    </vehicle>