<?xml version="1.0" encoding="UTF-8"?>

<!-- generated on Thu Oct 23 22:34:32 2014 by SUMO duarouter Version 0.18.0
<?xml version="1.0" encoding="UTF-8"?>

<configuration xmlns:xsi="http://www.w3.org/2001/XMLSchema-instance" xsi:noNamespaceSchemaLocation="http://sumo.sf.net/xsd/duarouterConfiguration.xsd">

    <input>
        <net-file value="corridor.net.xml"/>
        <trip-files value="experimentos/corridor.p0.7.3.trips.xml"/>
    </input>

    <output>
        <output-file value="experimentos/corridor.p0.7.3.rou.xml"/>
    </output>

    <processing>
        <ignore-errors value="true"/>
    </processing>

    <random_number>
        <random value="true"/>
    </random_number>

</configuration>
-->

<routes xmlns:xsi="http://www.w3.org/2001/XMLSchema-instance" xsi:noNamespaceSchemaLocation="http://sumo.sf.net/xsd/routes_file.xsd">
    <vehicle id="0" depart="0.00">
        <route edges="11:10 10:0 0:1 1:2 2:3 3:18 18:19"/>
    </vehicle>
    <vehicle id="1" depart="0.70">
        <route edges="6:4 4:0 0:1 1:2 2:3 3:18 18:19"/>
    </vehicle>
    <vehicle id="4" depart="2.80">
        <route edges="16:3 3:18 18:19"/>
    </vehicle>
    <vehicle id="5" depart="3.50">
        <route edges="4:0 0:1 1:2 2:14 14:15"/>
    </vehicle>
    <vehicle id="7" depart="4.90">
        <route edges="13:12 12:1 1:2 2:14 14:15"/>
    </vehicle>
    <vehicle id="8" depart="5.60">
        <route edges="7:5 5:3 3:2 2:1 1:12"/>
    </vehicle>
    <vehicle id="9" depart="6.30">
        <route edges="19:18 18:3 3:5 5:7"/>
    </vehicle>
    <vehicle id="14" depart="9.80">
        <route edges="6:4 4:0 0:8"/>
    </vehicle>
    <vehicle id="15" depart="10.50">
        <route edges="6:4 4:0 0:8 8:9"/>
    </vehicle>
    <vehicle id="16" depart="11.20">
        <route edges="9:8 8:0 0:1 1:2 2:3 3:18 18:19"/>
    </vehicle>
    <vehicle id="17" depart="11.90">
        <route edges="2:14 14:15"/>
    </vehicle>
    <vehicle id="18" depart="12.60">
        <route edges="11:10 10:0 0:4"/>
    </vehicle>
    <vehicle id="20" depart="14.00">
        <route edges="1:0 0:8 8:9"/>
    </vehicle>
    <vehicle id="21" depart="14.70">
        <route edges="9:8 8:0 0:1 1:2 2:3 3:18 18:19"/>
    </vehicle>
    <vehicle id="23" depart="16.10">
        <route edges="9:8 8:0 0:1"/>
    </vehicle>
    <vehicle id="24" depart="16.80">
        <route edges="7:5 5:3 3:2 2:1 1:0 0:4"/>
    </vehicle>
    <vehicle id="25" depart="17.50">
        <route edges="7:5 5:3 3:18"/>
    </vehicle>
    <vehicle id="26" depart="18.20">
        <route edges="2:3"/>
    </vehicle>
    <vehicle id="27" depart="18.90">
        <route edges="9:8 8:0 0:1 1:2 2:3 3:18 18:19"/>
    </vehicle>
    <vehicle id="30" depart="21.00">
        <route edges="19:18 18:3 3:5"/>
    </vehicle>
    <vehicle id="31" depart="21.70">
        <route edges="4:0 0:1 1:2 2:3 3:18 18:19"/>
    </vehicle>
    <vehicle id="32" depart="22.40">
        <route edges="4:0 0:1 1:2 2:3 3:18"/>
    </vehicle>
    <vehicle id="38" depart="26.60">
        <route edges="6:4 4:0 0:1 1:2 2:3 3:18 18:19"/>
    </vehicle>
    <vehicle id="39" depart="27.30">
        <route edges="4:0 0:10 10:11"/>
    </vehicle>
    <vehicle id="40" depart="28.00">
        <route edges="12:1 1:0 0:4 4:6"/>
    </vehicle>
    <vehicle id="44" depart="30.80">
        <route edges="5:3 3:2"/>
    </vehicle>
    <vehicle id="45" depart="31.50">
        <route edges="7:5 5:3 3:2 2:14 14:15"/>
    </vehicle>
    <vehicle id="46" depart="32.20">
        <route edges="6:4 4:0 0:1 1:2 2:3 3:5"/>
    </vehicle>
    <vehicle id="48" depart="33.60">
        <route edges="6:4 4:0 0:1 1:2 2:14"/>
    </vehicle>
    <vehicle id="49" depart="34.30">
        <route edges="15:14 14:2 2:1 1:0 0:4"/>
    </vehicle>
    <vehicle id="52" depart="36.40">
        <route edges="6:4 4:0 0:1 1:2 2:3"/>
    </vehicle>
    <vehicle id="54" depart="37.80">
        <route edges="6:4 4:0 0:1 1:2"/>
    </vehicle>
    <vehicle id="56" depart="39.20">
        <route edges="2:3 3:5 5:7"/>
    </vehicle>
    <vehicle id="57" depart="39.90">
        <route edges="6:4 4:0 0:8 8:9"/>
    </vehicle>
    <vehicle id="58" depart="40.60">
        <route edges="6:4 4:0 0:1 1:12"/>
    </vehicle>
    <vehicle id="60" depart="42.00">
        <route edges="9:8 8:0 0:1 1:2 2:3 3:16 16:17"/>
    </vehicle>
    <vehicle id="62" depart="43.40">
        <route edges="13:12 12:1 1:2 2:3 3:16 16:17"/>
    </vehicle>
    <vehicle id="64" depart="44.80">
        <route edges="15:14 14:2 2:3 3:5 5:7"/>
    </vehicle>
    <vehicle id="65" depart="45.50">
        <route edges="17:16 16:3 3:2 2:1"/>
    </vehicle>
    <vehicle id="70" depart="49.00">
        <route edges="3:2 2:1 1:0"/>
    </vehicle>
    <vehicle id="72" depart="50.40">
        <route edges="2:1 1:0 0:8 8:9"/>
    </vehicle>
    <vehicle id="74" depart="51.80">
        <route edges="6:4 4:0 0:1 1:2 2:3 3:5"/>
    </vehicle>
    <vehicle id="77" depart="53.90">
        <route edges="6:4 4:0 0:1 1:2 2:3 3:16 16:17"/>
    </vehicle>
    <vehicle id="79" depart="55.30">
        <route edges="16:3 3:18 18:19"/>
    </vehicle>
    <vehicle id="80" depart="56.00">
        <route edges="4:0 0:8 8:9"/>
    </vehicle>
    <vehicle id="81" depart="56.70">
        <route edges="19:18 18:3 3:2 2:1 1:0 0:10"/>
    </vehicle>
    <vehicle id="83" depart="58.10">
        <route edges="11:10 10:0 0:1 1:2 2:3 3:5 5:7"/>
    </vehicle>
    <vehicle id="84" depart="58.80">
        <route edges="16:3 3:18 18:19"/>
    </vehicle>
    <vehicle id="86" depart="60.20">
        <route edges="13:12 12:1 1:0 0:10 10:11"/>
    </vehicle>
    <vehicle id="89" depart="62.30">
        <route edges="15:14 14:2 2:3 3:5 5:7"/>
    </vehicle>
    <vehicle id="90" depart="63.00">
        <route edges="18:3 3:2 2:14"/>
    </vehicle>
    <vehicle id="91" depart="63.70">
        <route edges="11:10 10:0 0:1 1:2 2:3 3:16 16:17"/>
    </vehicle>
    <vehicle id="92" depart="64.40">
        <route edges="6:4 4:0 0:1 1:2 2:3 3:5 5:7"/>
    </vehicle>
    <vehicle id="95" depart="66.50">
        <route edges="15:14 14:2 2:1 1:12 12:13"/>
    </vehicle>
    <vehicle id="98" depart="68.60">
        <route edges="19:18 18:3 3:2 2:1 1:12 12:13"/>
    </vehicle>
    <vehicle id="102" depart="71.40">
        <route edges="9:8 8:0 0:4 4:6"/>
    </vehicle>
    <vehicle id="103" depart="72.10">
        <route edges="3:2 2:14 14:15"/>
    </vehicle>
    <vehicle id="105" depart="73.50">
        <route edges="7:5 5:3 3:18 18:19"/>
    </vehicle>
    <vehicle id="106" depart="74.20">
        <route edges="19:18 18:3 3:16 16:17"/>
    </vehicle>
    <vehicle id="109" depart="76.30">
        <route edges="6:4 4:0 0:1 1:12 12:13"/>
    </vehicle>
    <vehicle id="111" depart="77.70">
        <route edges="5:3 3:2 2:1 1:0 0:4 4:6"/>
    </vehicle>
    <vehicle id="113" depart="79.10">
        <route edges="6:4 4:0 0:1 1:2"/>
    </vehicle>
    <vehicle id="115" depart="80.50">
        <route edges="11:10 10:0 0:1 1:2 2:3"/>
    </vehicle>
    <vehicle id="121" depart="84.70">
        <route edges="7:5 5:3 3:2 2:1 1:12 12:13"/>
    </vehicle>
    <vehicle id="123" depart="86.10">
        <route edges="12:1 1:0 0:4 4:6"/>
    </vehicle>
    <vehicle id="124" depart="86.80">
        <route edges="3:2 2:1 1:0 0:4"/>
    </vehicle>
    <vehicle id="126" depart="88.20">
        <route edges="17:16 16:3 3:2 2:1"/>
    </vehicle>
    <vehicle id="127" depart="88.90">
        <route edges="17:16 16:3 3:2 2:1 1:0 0:4 4:6"/>
    </vehicle>
    <vehicle id="128" depart="89.60">
        <route edges="17:16 16:3 3:5 5:7"/>
    </vehicle>
    <vehicle id="130" depart="91.00">
        <route edges="12:1 1:0 0:4"/>
    </vehicle>
    <vehicle id="134" depart="93.80">
        <route edges="6:4 4:0 0:1 1:12 12:13"/>
    </vehicle>
    <vehicle id="136" depart="95.20">
        <route edges="7:5 5:3 3:18"/>
    </vehicle>
    <vehicle id="137" depart="95.90">
        <route edges="19:18 18:3 3:16 16:17"/>
    </vehicle>
    <vehicle id="138" depart="96.60">
        <route edges="6:4 4:0 0:1"/>
    </vehicle>
    <vehicle id="139" depart="97.30">
        <route edges="14:2 2:1 1:0 0:4 4:6"/>
    </vehicle>
    <vehicle id="144" depart="100.80">
        <route edges="13:12 12:1 1:2 2:3 3:5"/>
    </vehicle>
    <vehicle id="146" depart="102.20">
        <route edges="7:5 5:3 3:2 2:14 14:15"/>
    </vehicle>
    <vehicle id="148" depart="103.60">
        <route edges="13:12 12:1 1:2 2:3 3:5"/>
    </vehicle>
    <vehicle id="150" depart="105.00">
        <route edges="3:2 2:1 1:0 0:4 4:6"/>
    </vehicle>
    <vehicle id="151" depart="105.70">
        <route edges="6:4 4:0 0:1 1:2 2:14 14:15"/>
    </vehicle>
    <vehicle id="152" depart="106.40">
        <route edges="18:3 3:2 2:1 1:0 0:10 10:11"/>
    </vehicle>
    <vehicle id="154" depart="107.80">
        <route edges="10:0 0:1 1:2 2:3 3:5 5:7"/>
    </vehicle>
    <vehicle id="158" depart="110.60">
        <route edges="13:12 12:1 1:0 0:4 4:6"/>
    </vehicle>
    <vehicle id="163" depart="114.10">
        <route edges="15:14 14:2 2:1 1:0 0:4 4:6"/>
    </vehicle>
    <vehicle id="166" depart="116.20">
        <route edges="6:4 4:0 0:1 1:2 2:3 3:18 18:19"/>
    </vehicle>
    <vehicle id="168" depart="117.60">
        <route edges="15:14 14:2 2:1 1:12 12:13"/>
    </vehicle>
    <vehicle id="170" depart="119.00">
        <route edges="15:14 14:2 2:3 3:5 5:7"/>
    </vehicle>
    <vehicle id="171" depart="119.70">
        <route edges="3:2 2:1 1:0 0:10 10:11"/>
    </vehicle>
    <vehicle id="172" depart="120.40">
        <route edges="15:14 14:2 2:3 3:5 5:7"/>
    </vehicle>
    <vehicle id="175" depart="122.50">
        <route edges="15:14 14:2 2:1 1:0 0:10 10:11"/>
    </vehicle>
    <vehicle id="182" depart="127.40">
        <route edges="5:3 3:2 2:1"/>
    </vehicle>
    <vehicle id="185" depart="129.50">
        <route edges="0:1 1:2 2:3 3:5 5:7"/>
    </vehicle>
    <vehicle id="186" depart="130.20">
        <route edges="6:4 4:0"/>
    </vehicle>
    <vehicle id="187" depart="130.90">
        <route edges="13:12 12:1 1:2 2:14 14:15"/>
    </vehicle>
    <vehicle id="191" depart="133.70">
        <route edges="16:3 3:18 18:19"/>
    </vehicle>
    <vehicle id="192" depart="134.40">
        <route edges="19:18 18:3 3:2 2:14 14:15"/>
    </vehicle>
    <vehicle id="193" depart="135.10">
        <route edges="11:10 10:0 0:4"/>
    </vehicle>
    <vehicle id="196" depart="137.20">
        <route edges="15:14 14:2 2:3 3:18 18:19"/>
    </vehicle>
    <vehicle id="197" depart="137.90">
        <route edges="13:12 12:1 1:0 0:4 4:6"/>
    </vehicle>
    <vehicle id="199" depart="139.30">
        <route edges="6:4 4:0 0:1 1:2 2:14 14:15"/>
    </vehicle>
    <vehicle id="201" depart="140.70">
        <route edges="6:4 4:0 0:10"/>
    </vehicle>
    <vehicle id="203" depart="142.10">
        <route edges="7:5 5:3 3:2 2:1 1:0 0:10 10:11"/>
    </vehicle>
    <vehicle id="204" depart="142.80">
        <route edges="19:18 18:3 3:2 2:1 1:12"/>
    </vehicle>
    <vehicle id="207" depart="144.90">
        <route edges="2:3 3:18 18:19"/>
    </vehicle>
    <vehicle id="208" depart="145.60">
        <route edges="15:14 14:2 2:3 3:16 16:17"/>
    </vehicle>
    <vehicle id="210" depart="147.00">
        <route edges="9:8 8:0 0:1 1:2 2:3"/>
    </vehicle>
    <vehicle id="213" depart="149.10">
        <route edges="9:8 8:0 0:1 1:2 2:14"/>
    </vehicle>
    <vehicle id="214" depart="149.80">
        <route edges="15:14 14:2 2:1 1:0 0:4 4:6"/>
    </vehicle>
    <vehicle id="216" depart="151.20">
        <route edges="0:4"/>
    </vehicle>
    <vehicle id="218" depart="152.60">
        <route edges="15:14 14:2 2:1 1:12"/>
    </vehicle>
    <vehicle id="220" depart="154.00">
        <route edges="11:10 10:0 0:1 1:2 2:3 3:5 5:7"/>
    </vehicle>
    <vehicle id="225" depart="157.50">
        <route edges="12:1 1:0 0:4 4:6"/>
    </vehicle>
    <vehicle id="226" depart="158.20">
        <route edges="7:5 5:3 3:2 2:1 1:0 0:4"/>
    </vehicle>
    <vehicle id="227" depart="158.90">
        <route edges="6:4 4:0 0:1 1:2 2:3 3:18 18:19"/>
    </vehicle>
    <vehicle id="229" depart="160.30">
        <route edges="6:4 4:0 0:10 10:11"/>
    </vehicle>
    <vehicle id="231" depart="161.70">
        <route edges="17:16 16:3 3:2 2:1 1:0 0:4 4:6"/>
    </vehicle>
    <vehicle id="233" depart="163.10">
        <route edges="6:4 4:0 0:1 1:2 2:3 3:16 16:17"/>
    </vehicle>
    <vehicle id="234" depart="163.80">
        <route edges="6:4 4:0 0:8 8:9"/>
    </vehicle>
    <vehicle id="236" depart="165.20">
        <route edges="7:5 5:3 3:2 2:1 1:0 0:4 4:6"/>
    </vehicle>
    <vehicle id="238" depart="166.60">
        <route edges="8:0 0:1 1:12 12:13"/>
    </vehicle>
    <vehicle id="241" depart="168.70">
        <route edges="17:16 16:3 3:2 2:1 1:0 0:4 4:6"/>
    </vehicle>
    <vehicle id="242" depart="169.40">
        <route edges="13:12 12:1 1:0 0:8 8:9"/>
    </vehicle>
    <vehicle id="243" depart="170.10">
        <route edges="2:3 3:18"/>
    </vehicle>
    <vehicle id="246" depart="172.20">
        <route edges="13:12 12:1 1:0 0:4 4:6"/>
    </vehicle>
    <vehicle id="247" depart="172.90">
        <route edges="3:2 2:14 14:15"/>
    </vehicle>
    <vehicle id="251" depart="175.70">
        <route edges="1:2 2:14 14:15"/>
    </vehicle>
    <vehicle id="254" depart="177.80">
        <route edges="7:5 5:3 3:2 2:1 1:12 12:13"/>
    </vehicle>
    <vehicle id="256" depart="179.20">
        <route edges="7:5 5:3 3:18"/>
    </vehicle>
    <vehicle id="258" depart="180.60">
        <route edges="19:18 18:3 3:5 5:7"/>
    </vehicle>
    <vehicle id="260" depart="182.00">
        <route edges="7:5 5:3 3:18 18:19"/>
    </vehicle>
    <vehicle id="264" depart="184.80">
        <route edges="2:1 1:12 12:13"/>
    </vehicle>
    <vehicle id="265" depart="185.50">
        <route edges="11:10 10:0 0:4"/>
    </vehicle>
    <vehicle id="266" depart="186.20">
        <route edges="7:5 5:3 3:18"/>
    </vehicle>
    <vehicle id="267" depart="186.90">
        <route edges="7:5 5:3 3:18 18:19"/>
    </vehicle>
    <vehicle id="268" depart="187.60">
        <route edges="9:8 8:0 0:1 1:2 2:3 3:16 16:17"/>
    </vehicle>
    <vehicle id="270" depart="189.00">
        <route edges="5:3 3:2 2:1"/>
    </vehicle>
    <vehicle id="273" depart="191.10">
        <route edges="19:18 18:3 3:2 2:1 1:0 0:4 4:6"/>
    </vehicle>
    <vehicle id="275" depart="192.50">
        <route edges="2:1 1:0 0:8 8:9"/>
    </vehicle>
    <vehicle id="277" depart="193.90">
        <route edges="4:0 0:1"/>
    </vehicle>
    <vehicle id="279" depart="195.30">
        <route edges="13:12 12:1 1:0 0:4 4:6"/>
    </vehicle>
    <vehicle id="280" depart="196.00">
        <route edges="13:12 12:1 1:2 2:14 14:15"/>
    </vehicle>
    <vehicle id="281" depart="196.70">
        <route edges="15:14 14:2 2:3 3:5"/>
    </vehicle>
    <vehicle id="285" depart="199.50">
        <route edges="5:3 3:2 2:1"/>
    </vehicle>
    <vehicle id="286" depart="200.20">
        <route edges="19:18 18:3 3:2 2:1 1:0 0:8"/>
    </vehicle>
    <vehicle id="287" depart="200.90">
        <route edges="6:4 4:0 0:1 1:12"/>
    </vehicle>
    <vehicle id="290" depart="203.00">
        <route edges="2:3"/>
    </vehicle>
    <vehicle id="291" depart="203.70">
        <route edges="1:2 2:3 3:16 16:17"/>
    </vehicle>
    <vehicle id="293" depart="205.10">
        <route edges="19:18 18:3 3:2 2:1"/>
    </vehicle>
    <vehicle id="297" depart="207.90">
        <route edges="5:3 3:2 2:1 1:0 0:10 10:11"/>
    </vehicle>
    <vehicle id="299" depart="209.30">
        <route edges="7:5 5:3 3:2 2:14"/>
    </vehicle>
    <vehicle id="300" depart="210.00">
        <route edges="9:8 8:0 0:1 1:2 2:3 3:18 18:19"/>
    </vehicle>
    <vehicle id="301" depart="210.70">
        <route edges="6:4 4:0 0:1"/>
    </vehicle>
    <vehicle id="303" depart="212.10">
        <route edges="18:3 3:2 2:1 1:0 0:8"/>
    </vehicle>
    <vehicle id="304" depart="212.80">
        <route edges="11:10 10:0 0:4 4:6"/>
    </vehicle>
    <vehicle id="307" depart="214.90">
        <route edges="9:8 8:0 0:1 1:2 2:3 3:5 5:7"/>
    </vehicle>
    <vehicle id="308" depart="215.60">
        <route edges="7:5 5:3 3:2 2:1 1:12 12:13"/>
    </vehicle>
    <vehicle id="309" depart="216.30">
        <route edges="9:8 8:0 0:10 10:11"/>
    </vehicle>
    <vehicle id="310" depart="217.00">
        <route edges="11:10 10:0 0:1 1:12"/>
    </vehicle>
    <vehicle id="312" depart="218.40">
        <route edges="6:4 4:0 0:8 8:9"/>
    </vehicle>
    <vehicle id="314" depart="219.80">
        <route edges="6:4 4:0 0:1 1:2 2:3 3:18 18:19"/>
    </vehicle>
    <vehicle id="315" depart="220.50">
        <route edges="7:5 5:3 3:2 2:1 1:12 12:13"/>
    </vehicle>
    <vehicle id="316" depart="221.20">
        <route edges="0:4 4:6"/>
    </vehicle>
    <vehicle id="317" depart="221.90">
        <route edges="4:0 0:1 1:2 2:3 3:18 18:19"/>
    </vehicle>
    <vehicle id="318" depart="222.60">
        <route edges="7:5 5:3 3:2 2:14 14:15"/>
    </vehicle>
    <vehicle id="321" depart="224.70">
        <route edges="2:3"/>
    </vehicle>
    <vehicle id="323" depart="226.10">
        <route edges="1:0 0:8 8:9"/>
    </vehicle>
    <vehicle id="325" depart="227.50">
        <route edges="7:5 5:3 3:2 2:14 14:15"/>
    </vehicle>
    <vehicle id="326" depart="228.20">
        <route edges="15:14 14:2 2:1 1:0 0:4 4:6"/>
    </vehicle>
    <vehicle id="327" depart="228.90">
        <route edges="17:16 16:3 3:2 2:1 1:0 0:4 4:6"/>
    </vehicle>
    <vehicle id="331" depart="231.70">
        <route edges="9:8 8:0 0:4 4:6"/>
    </vehicle>
    <vehicle id="337" depart="235.90">
        <route edges="5:3 3:18 18:19"/>
    </vehicle>
    <vehicle id="339" depart="237.30">
        <route edges="2:1 1:0 0:4 4:6"/>
    </vehicle>
    <vehicle id="340" depart="238.00">
        <route edges="11:10 10:0 0:4"/>
    </vehicle>
    <vehicle id="341" depart="238.70">
        <route edges="0:1 1:2 2:3 3:18 18:19"/>
    </vehicle>
    <vehicle id="342" depart="239.40">
        <route edges="7:5 5:3 3:2 2:1 1:0 0:4"/>
    </vehicle>
    <vehicle id="344" depart="240.80">
        <route edges="12:1 1:0 0:8 8:9"/>
    </vehicle>
    <vehicle id="345" depart="241.50">
        <route edges="19:18 18:3 3:2"/>
    </vehicle>
    <vehicle id="346" depart="242.20">
        <route edges="11:10 10:0 0:8 8:9"/>
    </vehicle>
    <vehicle id="347" depart="242.90">
        <route edges="8:0 0:1 1:2 2:3 3:16 16:17"/>
    </vehicle>
    <vehicle id="348" depart="243.60">
        <route edges="15:14 14:2 2:3"/>
    </vehicle>
    <vehicle id="349" depart="244.30">
        <route edges="13:12 12:1 1:2 2:3 3:18 18:19"/>
    </vehicle>
    <vehicle id="351" depart="245.70">
        <route edges="9:8 8:0 0:1 1:2 2:3 3:5 5:7"/>
    </vehicle>
    <vehicle id="355" depart="248.50">
        <route edges="6:4 4:0 0:1 1:2 2:3"/>
    </vehicle>
    <vehicle id="358" depart="250.60">
        <route edges="5:3 3:2 2:1 1:0 0:8 8:9"/>
    </vehicle>
    <vehicle id="359" depart="251.30">
        <route edges="4:0"/>
    </vehicle>
    <vehicle id="360" depart="252.00">
        <route edges="6:4 4:0 0:1 1:12 12:13"/>
    </vehicle>
    <vehicle id="363" depart="254.10">
        <route edges="0:8 8:9"/>
    </vehicle>
    <vehicle id="365" depart="255.50">
        <route edges="7:5 5:3 3:2 2:1 1:0 0:10 10:11"/>
    </vehicle>
    <vehicle id="366" depart="256.20">
        <route edges="17:16 16:3 3:2 2:1 1:0 0:4 4:6"/>
    </vehicle>
    <vehicle id="367" depart="256.90">
        <route edges="10:0 0:4 4:6"/>
    </vehicle>
    <vehicle id="373" depart="261.10">
        <route edges="10:0 0:1 1:2"/>
    </vehicle>
    <vehicle id="375" depart="262.50">
        <route edges="13:12 12:1 1:2 2:3 3:16 16:17"/>
    </vehicle>
    <vehicle id="376" depart="263.20">
        <route edges="1:2 2:14 14:15"/>
    </vehicle>
    <vehicle id="377" depart="263.90">
        <route edges="5:3 3:16 16:17"/>
    </vehicle>
    <vehicle id="380" depart="266.00">
        <route edges="4:0 0:1 1:2 2:3 3:5 5:7"/>
    </vehicle>
    <vehicle id="381" depart="266.70">
        <route edges="6:4 4:0 0:1 1:12 12:13"/>
    </vehicle>
    <vehicle id="383" depart="268.10">
        <route edges="6:4 4:0 0:1 1:2"/>
    </vehicle>
    <vehicle id="384" depart="268.80">
        <route edges="6:4 4:0 0:1 1:2 2:3 3:5 5:7"/>
    </vehicle>
    <vehicle id="385" depart="269.50">
        <route edges="4:0 0:1 1:2 2:3 3:18 18:19"/>
    </vehicle>
    <vehicle id="390" depart="273.00">
        <route edges="3:5 5:7"/>
    </vehicle>
    <vehicle id="392" depart="274.40">
        <route edges="17:16 16:3 3:2 2:1 1:0 0:10 10:11"/>
    </vehicle>
    <vehicle id="394" depart="275.80">
        <route edges="19:18 18:3 3:2 2:1 1:0 0:8 8:9"/>
    </vehicle>
    <vehicle id="395" depart="276.50">
        <route edges="15:14 14:2 2:3"/>
    </vehicle>
    <vehicle id="396" depart="277.20">
        <route edges="13:12 12:1 1:2 2:3 3:16 16:17"/>
    </vehicle>
    <vehicle id="398" depart="278.60">
        <route edges="8:0 0:4 4:6"/>
    </vehicle>
    <vehicle id="400" depart="280.00">
        <route edges="11:10 10:0 0:1"/>
    </vehicle>
    <vehicle id="401" depart="280.70">
        <route edges="4:0 0:1 1:2 2:3 3:5"/>
    </vehicle>
    <vehicle id="403" depart="282.10">
        <route edges="19:18 18:3 3:2 2:1 1:12 12:13"/>
    </vehicle>
    <vehicle id="404" depart="282.80">
        <route edges="3:2 2:1 1:0 0:4 4:6"/>
    </vehicle>
    <vehicle id="409" depart="286.30">
        <route edges="13:12 12:1 1:0 0:4 4:6"/>
    </vehicle>
    <vehicle id="414" depart="289.80">
        <route edges="4:0 0:8 8:9"/>
    </vehicle>
    <vehicle id="415" depart="290.50">
        <route edges="13:12 12:1 1:2 2:3 3:18 18:19"/>
    </vehicle>
    <vehicle id="416" depart="291.20">
        <route edges="1:0 0:4 4:6"/>
    </vehicle>
    <vehicle id="421" depart="294.70">
        <route edges="19:18 18:3 3:2 2:1 1:0 0:10 10:11"/>
    </vehicle>
    <vehicle id="422" depart="295.40">
        <route edges="3:18 18:19"/>
    </vehicle>
    <vehicle id="423" depart="296.10">
        <route edges="9:8 8:0 0:1 1:2 2:14"/>
    </vehicle>
    <vehicle id="425" depart="297.50">
        <route edges="7:5 5:3 3:18 18:19"/>
    </vehicle>
    <vehicle id="426" depart="298.20">
        <route edges="5:3 3:2 2:1 1:0 0:8 8:9"/>
    </vehicle>
    <vehicle id="427" depart="298.90">
        <route edges="6:4 4:0 0:1 1:2 2:3 3:5 5:7"/>
    </vehicle>
    <vehicle id="431" depart="301.70">
        <route edges="17:16 16:3 3:2 2:1 1:0 0:8 8:9"/>
    </vehicle>
    <vehicle id="432" depart="302.40">
        <route edges="11:10 10:0 0:1 1:12 12:13"/>
    </vehicle>
    <vehicle id="434" depart="303.80">
        <route edges="9:8 8:0 0:1 1:2 2:3 3:18 18:19"/>
    </vehicle>
    <vehicle id="435" depart="304.50">
        <route edges="17:16 16:3 3:2 2:1 1:0 0:10 10:11"/>
    </vehicle>
    <vehicle id="436" depart="305.20">
        <route edges="7:5 5:3 3:2 2:1 1:0 0:4 4:6"/>
    </vehicle>
    <vehicle id="437" depart="305.90">
        <route edges="13:12 12:1 1:2 2:14 14:15"/>
    </vehicle>
    <vehicle id="439" depart="307.30">
        <route edges="7:5 5:3 3:2 2:1 1:0 0:4 4:6"/>
    </vehicle>
    <vehicle id="440" depart="308.00">
        <route edges="6:4 4:0 0:1 1:12 12:13"/>
    </vehicle>
    <vehicle id="442" depart="309.40">
        <route edges="7:5 5:3 3:2 2:1 1:0 0:4 4:6"/>
    </vehicle>
    <vehicle id="445" depart="311.50">
        <route edges="6:4 4:0 0:1 1:12"/>
    </vehicle>
    <vehicle id="446" depart="312.20">
        <route edges="7:5 5:3 3:2 2:1"/>
    </vehicle>
    <vehicle id="449" depart="314.30">
        <route edges="7:5 5:3 3:18 18:19"/>
    </vehicle>
    <vehicle id="450" depart="315.00">
        <route edges="16:3 3:2 2:1 1:12"/>
    </vehicle>
    <vehicle id="451" depart="315.70">
        <route edges="15:14 14:2 2:3"/>
    </vehicle>
    <vehicle id="455" depart="318.50">
        <route edges="17:16 16:3 3:2 2:1 1:0 0:4"/>
    </vehicle>
    <vehicle id="456" depart="319.20">
        <route edges="7:5 5:3 3:2 2:1 1:0 0:8 8:9"/>
    </vehicle>
    <vehicle id="457" depart="319.90">
        <route edges="14:2 2:1 1:0 0:8 8:9"/>
    </vehicle>
    <vehicle id="458" depart="320.60">
        <route edges="9:8 8:0 0:1 1:2 2:3 3:5 5:7"/>
    </vehicle>
    <vehicle id="459" depart="321.30">
        <route edges="8:0 0:1 1:2 2:3 3:18 18:19"/>
    </vehicle>
    <vehicle id="463" depart="324.10">
        <route edges="6:4 4:0 0:8 8:9"/>
    </vehicle>
    <vehicle id="465" depart="325.50">
        <route edges="8:0"/>
    </vehicle>
    <vehicle id="466" depart="326.20">
        <route edges="16:3 3:2 2:1 1:0 0:4 4:6"/>
    </vehicle>
    <vehicle id="468" depart="327.60">
        <route edges="9:8 8:0 0:1 1:2 2:3 3:18 18:19"/>
    </vehicle>
    <vehicle id="470" depart="329.00">
        <route edges="7:5 5:3 3:16 16:17"/>
    </vehicle>
    <vehicle id="471" depart="329.70">
        <route edges="19:18 18:3 3:2 2:1 1:0 0:4 4:6"/>
    </vehicle>
    <vehicle id="475" depart="332.50">
        <route edges="7:5 5:3 3:16 16:17"/>
    </vehicle>
    <vehicle id="478" depart="334.60">
        <route edges="2:3"/>
    </vehicle>
    <vehicle id="479" depart="335.30">
        <route edges="0:8 8:9"/>
    </vehicle>
    <vehicle id="481" depart="336.70">
        <route edges="19:18 18:3 3:2 2:1 1:0 0:10 10:11"/>
    </vehicle>
    <vehicle id="484" depart="338.80">
        <route edges="13:12 12:1 1:2 2:3 3:16 16:17"/>
    </vehicle>
    <vehicle id="485" depart="339.50">
        <route edges="16:3 3:18 18:19"/>
    </vehicle>
    <vehicle id="487" depart="340.90">
        <route edges="5:3 3:2 2:1 1:0"/>
    </vehicle>
    <vehicle id="488" depart="341.60">
        <route edges="12:1 1:2 2:3 3:18 18:19"/>
    </vehicle>
    <vehicle id="490" depart="343.00">
        <route edges="5:3 3:16 16:17"/>
    </vehicle>
    <vehicle id="493" depart="345.10">
        <route edges="17:16 16:3 3:2 2:1 1:0"/>
    </vehicle>
    <vehicle id="496" depart="347.20">
        <route edges="2:3 3:5"/>
    </vehicle>
    <vehicle id="497" depart="347.90">
        <route edges="12:1 1:0 0:10"/>
    </vehicle>
    <vehicle id="502" depart="351.40">
        <route edges="1:2 2:3 3:16 16:17"/>
    </vehicle>
    <vehicle id="504" depart="352.80">
        <route edges="6:4 4:0 0:1 1:2"/>
    </vehicle>
    <vehicle id="507" depart="354.90">
        <route edges="11:10 10:0 0:4 4:6"/>
    </vehicle>
    <vehicle id="508" depart="355.60">
        <route edges="2:3 3:16 16:17"/>
    </vehicle>
    <vehicle id="509" depart="356.30">
        <route edges="19:18 18:3 3:2 2:1 1:0 0:10 10:11"/>
    </vehicle>
    <vehicle id="512" depart="358.40">
        <route edges="6:4 4:0 0:1 1:2 2:3 3:18"/>
    </vehicle>
    <vehicle id="513" depart="359.10">
        <route edges="4:0 0:1 1:2 2:3 3:5 5:7"/>
    </vehicle>
    <vehicle id="514" depart="359.80">
        <route edges="15:14 14:2 2:3 3:5"/>
    </vehicle>
    <vehicle id="522" depart="365.40">
        <route edges="9:8 8:0 0:10"/>
    </vehicle>
    <vehicle id="523" depart="366.10">
        <route edges="7:5 5:3 3:16"/>
    </vehicle>
    <vehicle id="524" depart="366.80">
        <route edges="6:4 4:0 0:1 1:2 2:3 3:5 5:7"/>
    </vehicle>
    <vehicle id="525" depart="367.50">
        <route edges="0:1 1:2 2:3 3:5"/>
    </vehicle>
    <vehicle id="528" depart="369.60">
        <route edges="7:5 5:3 3:16 16:17"/>
    </vehicle>
    <vehicle id="536" depart="375.20">
        <route edges="13:12 12:1 1:0 0:8"/>
    </vehicle>
    <vehicle id="539" depart="377.30">
        <route edges="5:3 3:2"/>
    </vehicle>
    <vehicle id="542" depart="379.40">
        <route edges="15:14 14:2 2:1 1:0 0:10 10:11"/>
    </vehicle>
    <vehicle id="543" depart="380.10">
        <route edges="4:0 0:1 1:2 2:3 3:16"/>
    </vehicle>
    <vehicle id="545" depart="381.50">
        <route edges="11:10 10:0 0:1 1:12 12:13"/>
    </vehicle>
    <vehicle id="548" depart="383.60">
        <route edges="10:0 0:1 1:2 2:3 3:18 18:19"/>
    </vehicle>
    <vehicle id="551" depart="385.70">
        <route edges="11:10 10:0 0:4"/>
    </vehicle>
    <vehicle id="553" depart="387.10">
        <route edges="6:4 4:0 0:1 1:2 2:3 3:18 18:19"/>
    </vehicle>
    <vehicle id="555" depart="388.50">
        <route edges="9:8 8:0 0:4"/>
    </vehicle>
    <vehicle id="556" depart="389.20">
        <route edges="9:8 8:0 0:1 1:2 2:3 3:16 16:17"/>
    </vehicle>
    <vehicle id="557" depart="389.90">
        <route edges="9:8 8:0 0:1 1:2 2:3"/>
    </vehicle>
    <vehicle id="559" depart="391.30">
        <route edges="3:18 18:19"/>
    </vehicle>
    <vehicle id="560" depart="392.00">
        <route edges="19:18 18:3 3:2 2:1 1:0 0:10"/>
    </vehicle>
    <vehicle id="561" depart="392.70">
        <route edges="6:4 4:0 0:10 10:11"/>
    </vehicle>
    <vehicle id="563" depart="394.10">
        <route edges="18:3 3:2 2:1"/>
    </vehicle>
    <vehicle id="564" depart="394.80">
        <route edges="18:3 3:2"/>
    </vehicle>
    <vehicle id="566" depart="396.20">
        <route edges="2:1 1:12"/>
    </vehicle>
    <vehicle id="568" depart="397.60">
        <route edges="17:16 16:3 3:2 2:1 1:0 0:10"/>
    </vehicle>
    <vehicle id="572" depart="400.40">
        <route edges="15:14 14:2 2:1 1:0 0:8"/>
    </vehicle>
    <vehicle id="573" depart="401.10">
        <route edges="17:16 16:3 3:2 2:1 1:0 0:4 4:6"/>
    </vehicle>
    <vehicle id="575" depart="402.50">
        <route edges="13:12 12:1 1:0 0:4 4:6"/>
    </vehicle>
    <vehicle id="580" depart="406.00">
        <route edges="11:10 10:0 0:1 1:2 2:3 3:16 16:17"/>
    </vehicle>
    <vehicle id="582" depart="407.40">
        <route edges="15:14 14:2 2:3 3:5"/>
    </vehicle>
    <vehicle id="583" depart="408.10">
        <route edges="6:4 4:0 0:1 1:2 2:3 3:18"/>