<?xml version="1.0" encoding="UTF-8"?>

<!-- generated on Thu Oct 23 22:33:24 2014 by SUMO duarouter Version 0.18.0
<?xml version="1.0" encoding="UTF-8"?>

<configuration xmlns:xsi="http://www.w3.org/2001/XMLSchema-instance" xsi:noNamespaceSchemaLocation="http://sumo.sf.net/xsd/duarouterConfiguration.xsd">

    <input>
        <net-file value="corridor.net.xml"/>
        <trip-files value="experimentos/corridor.p0.1.4.trips.xml"/>
    </input>

    <output>
        <output-file value="experimentos/corridor.p0.1.4.rou.xml"/>
    </output>

    <processing>
        <ignore-errors value="true"/>
    </processing>

    <random_number>
        <random value="true"/>
    </random_number>

</configuration>
-->

<routes xmlns:xsi="http://www.w3.org/2001/XMLSchema-instance" xsi:noNamespaceSchemaLocation="http://sumo.sf.net/xsd/routes_file.xsd">
    <vehicle id="0" depart="0.00">
        <route edges="14:2 2:1 1:0 0:4 4:6"/>
    </vehicle>
    <vehicle id="5" depart="0.50">
        <route edges="11:10 10:0 0:1"/>
    </vehicle>
    <vehicle id="6" depart="0.60">
        <route edges="9:8 8:0 0:1 1:2 2:3 3:5 5:7"/>
    </vehicle>
    <vehicle id="8" depart="0.80">
        <route edges="17:16 16:3 3:2 2:1 1:0 0:8"/>
    </vehicle>
    <vehicle id="9" depart="0.90">
        <route edges="11:10 10:0 0:1 1:2 2:3 3:5"/>
    </vehicle>
    <vehicle id="10" depart="1.00">
        <route edges="11:10 10:0 0:8 8:9"/>
    </vehicle>
    <vehicle id="11" depart="1.10">
        <route edges="10:0 0:1 1:2 2:3 3:16 16:17"/>
    </vehicle>
    <vehicle id="13" depart="1.30">
        <route edges="6:4 4:0"/>
    </vehicle>
    <vehicle id="14" depart="1.40">
        <route edges="19:18 18:3 3:2 2:1 1:0 0:4 4:6"/>
    </vehicle>
    <vehicle id="16" depart="1.60">
        <route edges="12:1 1:2 2:14 14:15"/>
    </vehicle>
    <vehicle id="19" depart="1.90">
        <route edges="3:5 5:7"/>
    </vehicle>
    <vehicle id="21" depart="2.10">
        <route edges="16:3 3:2 2:14 14:15"/>
    </vehicle>
    <vehicle id="22" depart="2.20">
        <route edges="17:16 16:3 3:18 18:19"/>
    </vehicle>
    <vehicle id="25" depart="2.50">
        <route edges="19:18 18:3 3:5 5:7"/>
    </vehicle>
    <vehicle id="27" depart="2.70">
        <route edges="7:5 5:3 3:2 2:1 1:0 0:4 4:6"/>
    </vehicle>
    <vehicle id="30" depart="3.00">
        <route edges="11:10 10:0 0:1 1:2 2:3"/>
    </vehicle>
    <vehicle id="31" depart="3.10">
        <route edges="19:18 18:3 3:16 16:17"/>
    </vehicle>
    <vehicle id="32" depart="3.20">
        <route edges="10:0 0:1 1:2 2:3 3:18 18:19"/>
    </vehicle>
    <vehicle id="33" depart="3.30">
        <route edges="1:2"/>
    </vehicle>
    <vehicle id="34" depart="3.40">
        <route edges="7:5 5:3 3:2 2:1 1:0 0:10 10:11"/>
    </vehicle>
    <vehicle id="35" depart="3.50">
        <route edges="5:3 3:2 2:1 1:0 0:10 10:11"/>
    </vehicle>
    <vehicle id="36" depart="3.60">
        <route edges="6:4 4:0 0:1 1:2 2:3"/>
    </vehicle>
    <vehicle id="43" depart="4.30">
        <route edges="13:12 12:1 1:0 0:8 8:9"/>
    </vehicle>
    <vehicle id="44" depart="4.40">
        <route edges="6:4 4:0 0:8 8:9"/>
    </vehicle>
    <vehicle id="45" depart="4.50">
        <route edges="15:14 14:2 2:3"/>
    </vehicle>
    <vehicle id="47" depart="4.70">
        <route edges="11:10 10:0 0:1 1:2 2:3"/>
    </vehicle>
    <vehicle id="48" depart="4.80">
        <route edges="7:5 5:3 3:2 2:14 14:15"/>
    </vehicle>
    <vehicle id="49" depart="4.90">
        <route edges="11:10 10:0 0:1 1:2 2:3 3:16"/>
    </vehicle>
    <vehicle id="53" depart="5.30">
        <route edges="7:5 5:3 3:2 2:14 14:15"/>
    </vehicle>
    <vehicle id="57" depart="5.70">
        <route edges="3:2 2:1 1:0 0:4 4:6"/>
    </vehicle>
    <vehicle id="61" depart="6.10">
        <route edges="17:16 16:3 3:5 5:7"/>
    </vehicle>
    <vehicle id="62" depart="6.20">
        <route edges="3:2 2:14 14:15"/>
    </vehicle>
    <vehicle id="63" depart="6.30">
        <route edges="11:10 10:0 0:1 1:2 2:14"/>
    </vehicle>
    <vehicle id="65" depart="6.50">
        <route edges="7:5 5:3 3:2 2:14"/>
    </vehicle>
    <vehicle id="66" depart="6.60">
        <route edges="6:4 4:0 0:1 1:2 2:3"/>
    </vehicle>
    <vehicle id="67" depart="6.70">
        <route edges="6:4 4:0 0:1 1:2 2:3 3:16 16:17"/>
    </vehicle>
    <vehicle id="69" depart="6.90">
        <route edges="5:3 3:2 2:1 1:0 0:4 4:6"/>
    </vehicle>
    <vehicle id="70" depart="7.00">
        <route edges="0:1 1:2 2:3 3:5 5:7"/>
    </vehicle>
    <vehicle id="74" depart="7.40">
        <route edges="6:4 4:0"/>
    </vehicle>
    <vehicle id="75" depart="7.50">
        <route edges="14:2 2:1 1:0 0:4 4:6"/>
    </vehicle>
    <vehicle id="76" depart="7.60">
        <route edges="11:10 10:0 0:4"/>
    </vehicle>
    <vehicle id="83" depart="8.30">
        <route edges="15:14 14:2 2:1 1:12 12:13"/>
    </vehicle>
    <vehicle id="84" depart="8.40">
        <route edges="11:10 10:0 0:1 1:2 2:3"/>
    </vehicle>
    <vehicle id="86" depart="8.60">
        <route edges="11:10 10:0 0:8 8:9"/>
    </vehicle>
    <vehicle id="91" depart="9.10">
        <route edges="9:8 8:0 0:1 1:2 2:3 3:5 5:7"/>
    </vehicle>
    <vehicle id="92" depart="9.20">
        <route edges="6:4 4:0 0:10 10:11"/>
    </vehicle>
    <vehicle id="93" depart="9.30">
        <route edges="1:2 2:3 3:16"/>
    </vehicle>
    <vehicle id="94" depart="9.40">
        <route edges="9:8 8:0 0:10 10:11"/>
    </vehicle>
    <vehicle id="95" depart="9.50">
        <route edges="13:12 12:1 1:2 2:3 3:16 16:17"/>
    </vehicle>
    <vehicle id="96" depart="9.60">
        <route edges="15:14 14:2 2:3 3:5"/>
    </vehicle>
    <vehicle id="97" depart="9.70">
        <route edges="1:0 0:4 4:6"/>
    </vehicle>
    <vehicle id="98" depart="9.80">
        <route edges="7:5 5:3 3:2 2:1 1:0 0:10 10:11"/>
    </vehicle>
    <vehicle id="99" depart="9.90">
        <route edges="0:1 1:2 2:3"/>
    </vehicle>
    <vehicle id="100" depart="10.00">
        <route edges="15:14 14:2 2:1 1:0 0:4 4:6"/>
    </vehicle>
    <vehicle id="101" depart="10.10">
        <route edges="7:5 5:3 3:2 2:1 1:0 0:8"/>
    </vehicle>
    <vehicle id="103" depart="10.30">
        <route edges="11:10 10:0 0:1 1:2 2:3 3:16 16:17"/>
    </vehicle>
    <vehicle id="104" depart="10.40">
        <route edges="17:16 16:3 3:5 5:7"/>
    </vehicle>
    <vehicle id="105" depart="10.50">
        <route edges="11:10 10:0 0:4 4:6"/>
    </vehicle>
    <vehicle id="106" depart="10.60">
        <route edges="9:8 8:0 0:1 1:2 2:14"/>
    </vehicle>
    <vehicle id="108" depart="10.80">
        <route edges="18:3 3:5"/>
    </vehicle>
    <vehicle id="109" depart="10.90">
        <route edges="11:10 10:0 0:1 1:2 2:3 3:16 16:17"/>
    </vehicle>
    <vehicle id="110" depart="11.00">
        <route edges="4:0 0:1 1:2 2:3 3:18 18:19"/>
    </vehicle>
    <vehicle id="117" depart="11.70">
        <route edges="13:12 12:1 1:2 2:3 3:5 5:7"/>
    </vehicle>
    <vehicle id="118" depart="11.80">
        <route edges="4:0 0:1 1:2 2:3 3:18 18:19"/>
    </vehicle>
    <vehicle id="121" depart="12.10">
        <route edges="7:5 5:3 3:2 2:14 14:15"/>
    </vehicle>
    <vehicle id="122" depart="12.20">
        <route edges="3:2 2:1 1:12 12:13"/>
    </vehicle>
    <vehicle id="124" depart="12.40">
        <route edges="3:2 2:1 1:0 0:4 4:6"/>
    </vehicle>
    <vehicle id="125" depart="12.50">
        <route edges="19:18 18:3 3:5"/>
    </vehicle>
    <vehicle id="126" depart="12.60">
        <route edges="6:4 4:0 0:1 1:2 2:3 3:18 18:19"/>
    </vehicle>
    <vehicle id="130" depart="13.00">
        <route edges="6:4 4:0 0:8 8:9"/>
    </vehicle>
    <vehicle id="131" depart="13.10">
        <route edges="15:14 14:2 2:1 1:0 0:4 4:6"/>
    </vehicle>
    <vehicle id="132" depart="13.20">
        <route edges="14:2 2:1 1:0"/>
    </vehicle>
    <vehicle id="133" depart="13.30">
        <route edges="13:12 12:1 1:2 2:14 14:15"/>
    </vehicle>
    <vehicle id="134" depart="13.40">
        <route edges="17:16 16:3 3:2 2:14"/>
    </vehicle>
    <vehicle id="137" depart="13.70">
        <route edges="6:4 4:0 0:1 1:2 2:3 3:16 16:17"/>
    </vehicle>
    <vehicle id="138" depart="13.80">
        <route edges="17:16 16:3 3:2 2:1 1:12 12:13"/>
    </vehicle>
    <vehicle id="139" depart="13.90">
        <route edges="15:14 14:2 2:3"/>
    </vehicle>
    <vehicle id="141" depart="14.10">
        <route edges="6:4 4:0"/>
    </vehicle>
    <vehicle id="144" depart="14.40">
        <route edges="17:16 16:3 3:2 2:1 1:0 0:4"/>
    </vehicle>
    <vehicle id="146" depart="14.60">
        <route edges="14:2 2:1 1:0 0:4 4:6"/>
    </vehicle>
    <vehicle id="149" depart="14.90">
        <route edges="2:3 3:16 16:17"/>
    </vehicle>
    <vehicle id="150" depart="15.00">
        <route edges="17:16 16:3 3:2 2:1 1:0 0:10"/>
    </vehicle>
    <vehicle id="154" depart="15.40">
        <route edges="4:0 0:1 1:2 2:3 3:5 5:7"/>
    </vehicle>
    <vehicle id="155" depart="15.50">
        <route edges="6:4 4:0 0:1 1:2 2:14 14:15"/>
    </vehicle>
    <vehicle id="157" depart="15.70">
        <route edges="7:5 5:3 3:2 2:1 1:12 12:13"/>
    </vehicle>
    <vehicle id="159" depart="15.90">
        <route edges="6:4 4:0 0:1"/>
    </vehicle>
    <vehicle id="160" depart="16.00">
        <route edges="1:0 0:4 4:6"/>
    </vehicle>
    <vehicle id="161" depart="16.10">
        <route edges="17:16 16:3 3:18 18:19"/>
    </vehicle>
    <vehicle id="163" depart="16.30">
        <route edges="16:3 3:2 2:1 1:0 0:10 10:11"/>
    </vehicle>
    <vehicle id="164" depart="16.40">
        <route edges="15:14 14:2 2:3 3:18 18:19"/>
    </vehicle>
    <vehicle id="165" depart="16.50">
        <route edges="14:2 2:3 3:5 5:7"/>
    </vehicle>
    <vehicle id="166" depart="16.60">
        <route edges="5:3 3:2 2:14 14:15"/>
    </vehicle>
    <vehicle id="167" depart="16.70">
        <route edges="10:0"/>
    </vehicle>
    <vehicle id="169" depart="16.90">
        <route edges="11:10 10:0 0:8 8:9"/>
    </vehicle>
    <vehicle id="170" depart="17.00">
        <route edges="19:18 18:3 3:2 2:14 14:15"/>
    </vehicle>
    <vehicle id="171" depart="17.10">
        <route edges="19:18 18:3 3:2 2:1 1:0 0:4"/>
    </vehicle>
    <vehicle id="174" depart="17.40">
        <route edges="11:10 10:0 0:1 1:2 2:3 3:5 5:7"/>
    </vehicle>
    <vehicle id="176" depart="17.60">
        <route edges="19:18 18:3 3:2 2:14 14:15"/>
    </vehicle>
    <vehicle id="178" depart="17.80">
        <route edges="1:0 0:10 10:11"/>
    </vehicle>
    <vehicle id="179" depart="17.90">
        <route edges="1:0 0:4 4:6"/>
    </vehicle>
    <vehicle id="180" depart="18.00">
        <route edges="0:8 8:9"/>
    </vehicle>
    <vehicle id="182" depart="18.20">
        <route edges="9:8 8:0 0:1 1:2 2:3 3:5 5:7"/>
    </vehicle>
    <vehicle id="183" depart="18.30">
        <route edges="10:0 0:1 1:2 2:3"/>
    </vehicle>
    <vehicle id="184" depart="18.40">
        <route edges="8:0 0:1 1:2 2:3 3:18"/>
    </vehicle>
    <vehicle id="185" depart="18.50">
        <route edges="5:3 3:2 2:1 1:0 0:8 8:9"/>
    </vehicle>
    <vehicle id="186" depart="18.60">
        <route edges="2:3 3:16"/>
    </vehicle>
    <vehicle id="187" depart="18.70">
        <route edges="19:18 18:3 3:2 2:1 1:12 12:13"/>
    </vehicle>
    <vehicle id="188" depart="18.80">
        <route edges="2:1 1:0 0:10 10:11"/>
    </vehicle>
    <vehicle id="189" depart="18.90">
        <route edges="7:5 5:3 3:2 2:1 1:0 0:4"/>
    </vehicle>
    <vehicle id="191" depart="19.10">
        <route edges="13:12 12:1 1:2 2:3 3:16"/>
    </vehicle>
    <vehicle id="192" depart="19.20">
        <route edges="4:0 0:1 1:12 12:13"/>
    </vehicle>
    <vehicle id="193" depart="19.30">
        <route edges="6:4 4:0 0:8 8:9"/>
    </vehicle>
    <vehicle id="194" depart="19.40">
        <route edges="13:12 12:1 1:2 2:3 3:5 5:7"/>
    </vehicle>
    <vehicle id="196" depart="19.60">
        <route edges="15:14 14:2 2:1 1:0 0:4"/>
    </vehicle>
    <vehicle id="197" depart="19.70">
        <route edges="4:0 0:1 1:2 2:3 3:16 16:17"/>
    </vehicle>
    <vehicle id="199" depart="19.90">
        <route edges="6:4 4:0 0:1 1:2 2:3 3:16 16:17"/>
    </vehicle>
    <vehicle id="201" depart="20.10">
        <route edges="2:3 3:5 5:7"/>
    </vehicle>
    <vehicle id="204" depart="20.40">
        <route edges="11:10 10:0 0:1 1:2 2:3 3:18 18:19"/>
    </vehicle>
    <vehicle id="206" depart="20.60">
        <route edges="15:14 14:2 2:1 1:0 0:10 10:11"/>
    </vehicle>
    <vehicle id="209" depart="20.90">
        <route edges="5:3 3:2 2:1 1:12 12:13"/>
    </vehicle>
    <vehicle id="213" depart="21.30">
        <route edges="17:16 16:3 3:2 2:1 1:0 0:8"/>
    </vehicle>
    <vehicle id="215" depart="21.50">
        <route edges="19:18 18:3 3:2 2:1 1:0 0:4"/>
    </vehicle>
    <vehicle id="216" depart="21.60">
        <route edges="13:12 12:1 1:2 2:3"/>
    </vehicle>
    <vehicle id="217" depart="21.70">
        <route edges="18:3 3:2 2:1 1:0 0:10"/>
    </vehicle>
    <vehicle id="221" depart="22.10">
        <route edges="13:12 12:1 1:0 0:8 8:9"/>
    </vehicle>
    <vehicle id="222" depart="22.20">
        <route edges="5:3 3:2 2:1 1:0 0:10 10:11"/>
    </vehicle>
    <vehicle id="224" depart="22.40">
        <route edges="17:16 16:3 3:2 2:1 1:0 0:4"/>
    </vehicle>
    <vehicle id="226" depart="22.60">
        <route edges="4:0 0:1 1:2 2:3 3:16"/>
    </vehicle>
    <vehicle id="228" depart="22.80">
        <route edges="5:3 3:16 16:17"/>
    </vehicle>
    <vehicle id="229" depart="22.90">
        <route edges="4:0 0:1 1:2 2:3 3:5 5:7"/>
    </vehicle>
    <vehicle id="234" depart="23.40">
        <route edges="7:5 5:3 3:2"/>
    </vehicle>
    <vehicle id="235" depart="23.50">
        <route edges="17:16 16:3 3:2"/>
    </vehicle>
    <vehicle id="237" depart="23.70">
        <route edges="6:4 4:0 0:10 10:11"/>
    </vehicle>
    <vehicle id="238" depart="23.80">
        <route edges="17:16 16:3 3:2 2:1 1:0 0:4 4:6"/>
    </vehicle>
    <vehicle id="239" depart="23.90">
        <route edges="7:5 5:3 3:16 16:17"/>
    </vehicle>
    <vehicle id="240" depart="24.00">
        <route edges="13:12 12:1 1:0"/>
    </vehicle>
    <vehicle id="241" depart="24.10">
        <route edges="15:14 14:2 2:1 1:0 0:10 10:11"/>
    </vehicle>
    <vehicle id="242" depart="24.20">
        <route edges="10:0 0:1 1:2 2:3 3:5"/>
    </vehicle>
    <vehicle id="245" depart="24.50">
        <route edges="7:5 5:3 3:2 2:1 1:0 0:8 8:9"/>
    </vehicle>
    <vehicle id="246" depart="24.60">
        <route edges="7:5 5:3 3:2 2:14 14:15"/>
    </vehicle>
    <vehicle id="249" depart="24.90">
        <route edges="11:10 10:0 0:1 1:2 2:3 3:5 5:7"/>
    </vehicle>
    <vehicle id="250" depart="25.00">
        <route edges="3:2 2:14 14:15"/>
    </vehicle>
    <vehicle id="251" depart="25.10">
        <route edges="9:8 8:0 0:1 1:2 2:3 3:5 5:7"/>
    </vehicle>
    <vehicle id="253" depart="25.30">
        <route edges="12:1 1:2 2:14 14:15"/>
    </vehicle>
    <vehicle id="256" depart="25.60">
        <route edges="0:1 1:2 2:14 14:15"/>
    </vehicle>
    <vehicle id="257" depart="25.70">
        <route edges="6:4 4:0 0:1 1:2"/>
    </vehicle>
    <vehicle id="258" depart="25.80">
        <route edges="1:2 2:3 3:5 5:7"/>
    </vehicle>
    <vehicle id="259" depart="25.90">
        <route edges="13:12 12:1 1:2 2:3 3:18 18:19"/>
    </vehicle>
    <vehicle id="260" depart="26.00">
        <route edges="15:14 14:2 2:3 3:5 5:7"/>
    </vehicle>
    <vehicle id="263" depart="26.30">
        <route edges="7:5 5:3 3:16 16:17"/>
    </vehicle>
    <vehicle id="265" depart="26.50">
        <route edges="18:3 3:2 2:1 1:0 0:10"/>
    </vehicle>
    <vehicle id="267" depart="26.70">
        <route edges="1:0 0:8 8:9"/>
    </vehicle>
    <vehicle id="268" depart="26.80">
        <route edges="9:8 8:0 0:1 1:2 2:3 3:5 5:7"/>
    </vehicle>
    <vehicle id="270" depart="27.00">
        <route edges="17:16 16:3 3:2 2:1 1:0 0:4 4:6"/>
    </vehicle>
    <vehicle id="271" depart="27.10">
        <route edges="9:8 8:0 0:1 1:2 2:3 3:5 5:7"/>
    </vehicle>
    <vehicle id="274" depart="27.40">
        <route edges="5:3 3:2 2:14 14:15"/>
    </vehicle>
    <vehicle id="276" depart="27.60">
        <route edges="7:5 5:3 3:2 2:1 1:12 12:13"/>
    </vehicle>
    <vehicle id="277" depart="27.70">
        <route edges="1:2 2:3"/>
    </vehicle>
    <vehicle id="278" depart="27.80">
        <route edges="6:4 4:0 0:1 1:2 2:3 3:5 5:7"/>
    </vehicle>
    <vehicle id="281" depart="28.10">
        <route edges="7:5 5:3 3:18 18:19"/>
    </vehicle>
    <vehicle id="283" depart="28.30">
        <route edges="3:2 2:1 1:0 0:8 8:9"/>
    </vehicle>
    <vehicle id="286" depart="28.60">
        <route edges="13:12 12:1 1:0 0:8 8:9"/>
    </vehicle>
    <vehicle id="288" depart="28.80">
        <route edges="11:10 10:0 0:4 4:6"/>
    </vehicle>
    <vehicle id="291" depart="29.10">
        <route edges="17:16 16:3 3:2 2:1 1:0 0:4 4:6"/>
    </vehicle>
    <vehicle id="292" depart="29.20">
        <route edges="17:16 16:3 3:2 2:14 14:15"/>
    </vehicle>
    <vehicle id="295" depart="29.50">
        <route edges="3:2 2:1 1:12 12:13"/>
    </vehicle>
    <vehicle id="298" depart="29.80">
        <route edges="15:14 14:2 2:1"/>
    </vehicle>
    <vehicle id="300" depart="30.00">
        <route edges="15:14 14:2 2:1 1:0 0:4 4:6"/>
    </vehicle>
    <vehicle id="301" depart="30.10">
        <route edges="6:4 4:0 0:8 8:9"/>
    </vehicle>
    <vehicle id="302" depart="30.20">
        <route edges="14:2 2:3 3:18 18:19"/>
    </vehicle>
    <vehicle id="303" depart="30.30">
        <route edges="0:1 1:2 2:3 3:18 18:19"/>
    </vehicle>
    <vehicle id="305" depart="30.50">
        <route edges="5:3 3:2 2:14 14:15"/>
    </vehicle>
    <vehicle id="308" depart="30.80">
        <route edges="17:16 16:3 3:18"/>
    </vehicle>
    <vehicle id="314" depart="31.40">
        <route edges="7:5 5:3 3:2"/>
    </vehicle>
    <vehicle id="315" depart="31.50">
        <route edges="6:4 4:0 0:1 1:2 2:14 14:15"/>
    </vehicle>
    <vehicle id="317" depart="31.70">
        <route edges="7:5 5:3 3:2 2:1"/>
    </vehicle>
    <vehicle id="318" depart="31.80">
        <route edges="13:12 12:1 1:2"/>
    </vehicle>
    <vehicle id="319" depart="31.90">
        <route edges="19:18 18:3 3:16 16:17"/>
    </vehicle>
    <vehicle id="320" depart="32.00">
        <route edges="7:5 5:3 3:2 2:1 1:12 12:13"/>
    </vehicle>
    <vehicle id="322" depart="32.20">
        <route edges="16:3 3:2 2:1 1:0"/>
    </vehicle>
    <vehicle id="323" depart="32.30">
        <route edges="3:5 5:7"/>
    </vehicle>
    <vehicle id="324" depart="32.40">
        <route edges="6:4 4:0 0:1 1:2 2:14"/>
    </vehicle>
    <vehicle id="329" depart="32.90">
        <route edges="8:0 0:1 1:2 2:3 3:5 5:7"/>
    </vehicle>
    <vehicle id="333" depart="33.30">
        <route edges="9:8 8:0 0:1 1:12"/>
    </vehicle>
    <vehicle id="334" depart="33.40">
        <route edges="6:4 4:0 0:10"/>
    </vehicle>
    <vehicle id="336" depart="33.60">
        <route edges="3:2 2:1 1:12 12:13"/>
    </vehicle>
    <vehicle id="337" depart="33.70">
        <route edges="19:18 18:3 3:2 2:1 1:0 0:8 8:9"/>
    </vehicle>
    <vehicle id="342" depart="34.20">
        <route edges="4:0 0:1 1:12 12:13"/>
    </vehicle>
    <vehicle id="344" depart="34.40">
        <route edges="19:18 18:3 3:2 2:14 14:15"/>
    </vehicle>
    <vehicle id="345" depart="34.50">
        <route edges="6:4 4:0 0:10 10:11"/>
    </vehicle>
    <vehicle id="347" depart="34.70">
        <route edges="0:1 1:2 2:14 14:15"/>
    </vehicle>
    <vehicle id="349" depart="34.90">
        <route edges="8:0 0:1 1:2 2:3 3:18 18:19"/>
    </vehicle>
    <vehicle id="351" depart="35.10">
        <route edges="17:16 16:3 3:2 2:1 1:0 0:4 4:6"/>
    </vehicle>
    <vehicle id="353" depart="35.30">
        <route edges="15:14 14:2 2:1 1:0"/>
    </vehicle>
    <vehicle id="358" depart="35.80">
        <route edges="3:2 2:1 1:0 0:10 10:11"/>
    </vehicle>
    <vehicle id="359" depart="35.90">
        <route edges="6:4 4:0 0:1 1:12 12:13"/>
    </vehicle>
    <vehicle id="361" depart="36.10">
        <route edges="3:2 2:1 1:0 0:10 10:11"/>
    </vehicle>
    <vehicle id="362" depart="36.20">
        <route edges="0:1 1:2"/>
    </vehicle>
    <vehicle id="363" depart="36.30">
        <route edges="3:5 5:7"/>
    </vehicle>
    <vehicle id="364" depart="36.40">
        <route edges="1:2 2:14"/>
    </vehicle>
    <vehicle id="365" depart="36.50">
        <route edges="15:14 14:2 2:3 3:5 5:7"/>
    </vehicle>
    <vehicle id="368" depart="36.80">
        <route edges="3:2 2:1 1:0 0:4 4:6"/>
    </vehicle>
    <vehicle id="370" depart="37.00">
        <route edges="7:5 5:3 3:18 18:19"/>
    </vehicle>
    <vehicle id="371" depart="37.10">
        <route edges="9:8 8:0 0:10 10:11"/>
    </vehicle>
    <vehicle id="372" depart="37.20">
        <route edges="13:12 12:1 1:0 0:4 4:6"/>
    </vehicle>
    <vehicle id="373" depart="37.30">
        <route edges="1:12 12:13"/>
    </vehicle>
    <vehicle id="375" depart="37.50">
        <route edges="15:14 14:2 2:1 1:0 0:4 4:6"/>
    </vehicle>
    <vehicle id="376" depart="37.60">
        <route edges="6:4 4:0 0:8 8:9"/>
    </vehicle>
    <vehicle id="378" depart="37.80">
        <route edges="17:16 16:3 3:2 2:1 1:0 0:4 4:6"/>
    </vehicle>
    <vehicle id="380" depart="38.00">
        <route edges="5:3 3:2 2:1 1:0 0:10 10:11"/>
    </vehicle>
    <vehicle id="381" depart="38.10">
        <route edges="17:16 16:3 3:2 2:1"/>
    </vehicle>
    <vehicle id="382" depart="38.20">
        <route edges="6:4 4:0 0:1 1:2 2:3 3:5 5:7"/>
    </vehicle>
    <vehicle id="383" depart="38.30">
        <route edges="7:5 5:3 3:16 16:17"/>
    </vehicle>
    <vehicle id="390" depart="39.00">
        <route edges="3:2 2:1 1:0 0:8"/>
    </vehicle>
    <vehicle id="392" depart="39.20">
        <route edges="9:8 8:0 0:1 1:2 2:14 14:15"/>
    </vehicle>
    <vehicle id="393" depart="39.30">
        <route edges="15:14 14:2 2:1 1:0 0:8 8:9"/>
    </vehicle>
    <vehicle id="394" depart="39.40">
        <route edges="9:8 8:0 0:1 1:2 2:3 3:5"/>
    </vehicle>
    <vehicle id="397" depart="39.70">
        <route edges="7:5 5:3 3:16 16:17"/>
    </vehicle>
    <vehicle id="398" depart="39.80">
        <route edges="1:2 2:3 3:5"/>
    </vehicle>
    <vehicle id="402" depart="40.20">
        <route edges="16:3 3:2 2:1 1:12 12:13"/>
    </vehicle>
    <vehicle id="404" depart="40.40">
        <route edges="11:10 10:0 0:1 1:2 2:3"/>
    </vehicle>
    <vehicle id="405" depart="40.50">
        <route edges="16:3 3:2 2:1 1:12 12:13"/>
    </vehicle>
    <vehicle id="407" depart="40.70">
        <route edges="1:2 2:3 3:5"/>
    </vehicle>
    <vehicle id="409" depart="40.90">
        <route edges="4:0 0:1 1:2 2:3 3:5 5:7"/>
    </vehicle>
    <vehicle id="410" depart="41.00">
        <route edges="6:4 4:0 0:1 1:2 2:3 3:5"/>
    </vehicle>
    <vehicle id="411" depart="41.10">
        <route edges="13:12 12:1 1:0"/>
    </vehicle>
    <vehicle id="414" depart="41.40">
        <route edges="19:18 18:3 3:5 5:7"/>
    </vehicle>
    <vehicle id="415" depart="41.50">
        <route edges="9:8 8:0 0:10 10:11"/>
    </vehicle>
    <vehicle id="420" depart="42.00">
        <route edges="1:2 2:3 3:18 18:19"/>
    </vehicle>
    <vehicle id="421" depart="42.10">
        <route edges="16:3 3:2 2:1 1:12"/>
    </vehicle>
    <vehicle id="424" depart="42.40">
        <route edges="7:5 5:3 3:18 18:19"/>
    </vehicle>
    <vehicle id="427" depart="42.70">
        <route edges="6:4 4:0"/>
    </vehicle>
    <vehicle id="428" depart="42.80">
        <route edges="2:3 3:18 18:19"/>
    </vehicle>
    <vehicle id="431" depart="43.10">
        <route edges="15:14 14:2 2:3 3:18 18:19"/>
    </vehicle>
    <vehicle id="433" depart="43.30">
        <route edges="1:0"/>
    </vehicle>
    <vehicle id="435" depart="43.50">
        <route edges="6:4 4:0 0:1 1:2"/>
    </vehicle>
    <vehicle id="437" depart="43.70">
        <route edges="6:4 4:0 0:1 1:2 2:14 14:15"/>
    </vehicle>
    <vehicle id="441" depart="44.10">
        <route edges="5:3 3:2 2:1 1:12 12:13"/>
    </vehicle>
    <vehicle id="443" depart="44.30">
        <route edges="7:5 5:3"/>
    </vehicle>
    <vehicle id="444" depart="44.40">
        <route edges="15:14 14:2 2:3 3:16 16:17"/>
    </vehicle>
    <vehicle id="445" depart="44.50">
        <route edges="0:1 1:2 2:3"/>
    </vehicle>
    <vehicle id="446" depart="44.60">
        <route edges="6:4 4:0 0:1 1:2 2:3 3:5 5:7"/>
    </vehicle>
    <vehicle id="449" depart="44.90">
        <route edges="0:4 4:6"/>
    </vehicle>
    <vehicle id="451" depart="45.10">
        <route edges="15:14 14:2 2:1 1:0 0:4 4:6"/>
    </vehicle>
    <vehicle id="454" depart="45.40">
        <route edges="3:2 2:1 1:0 0:8 8:9"/>
    </vehicle>
    <vehicle id="456" depart="45.60">
        <route edges="16:3 3:18 18:19"/>
    </vehicle>
    <vehicle id="458" depart="45.80">
        <route edges="2:3 3:5 5:7"/>
    </vehicle>
    <vehicle id="459" depart="45.90">
        <route edges="2:3 3:5"/>
    </vehicle>
    <vehicle id="462" depart="46.20">
        <route edges="17:16 16:3 3:2 2:1 1:0 0:4 4:6"/>
    </vehicle>
    <vehicle id="464" depart="46.40">
        <route edges="6:4 4:0 0:1 1:2 2:3 3:18"/>
    </vehicle>
    <vehicle id="466" depart="46.60">
        <route edges="11:10 10:0 0:1 1:2 2:3 3:18"/>
    </vehicle>
    <vehicle id="467" depart="46.70">
        <route edges="9:8 8:0 0:4"/>
    </vehicle>
    <vehicle id="468" depart="46.80">
        <route edges="17:16 16:3 3:2 2:1 1:0 0:8 8:9"/>
    </vehicle>
    <vehicle id="470" depart="47.00">
        <route edges="15:14 14:2 2:3"/>
    </vehicle>
    <vehicle id="472" depart="47.20">
        <route edges="11:10 10:0 0:1 1:2 2:3"/>
    </vehicle>
    <vehicle id="475" depart="47.50">
        <route edges="1:2 2:14 14:15"/>
    </vehicle>
    <vehicle id="476" depart="47.60">
        <route edges="4:0 0:1 1:2 2:3 3:16 16:17"/>
    </vehicle>
    <vehicle id="478" depart="47.80">
        <route edges="15:14 14:2 2:1 1:0 0:4 4:6"/>
    </vehicle>
    <vehicle id="479" depart="47.90">
        <route edges="3:2 2:1 1:0 0:4 4:6"/>
    </vehicle>
    <vehicle id="481" depart="48.10">
        <route edges="1:2 2:14 14:15"/>
    </vehicle>
    <vehicle id="485" depart="48.50">
        <route edges="7:5 5:3"/>
    </vehicle>
    <vehicle id="486" depart="48.60">
        <route edges="0:4"/>
    </vehicle>
    <vehicle id="487" depart="48.70">
        <route edges="15:14 14:2 2:1 1:0 0:4 4:6"/>
    </vehicle>
    <vehicle id="490" depart="49.00">
        <route edges="13:12 12:1 1:2"/>
    </vehicle>
    <vehicle id="491" depart="49.10">
        <route edges="2:1 1:0 0:8 8:9"/>
    </vehicle>
    <vehicle id="492" depart="49.20">
        <route edges="17:16 16:3 3:18 18:19"/>
    </vehicle>
    <vehicle id="493" depart="49.30">
        <route edges="5:3 3:2 2:14 14:15"/>
    </vehicle>
    <vehicle id="496" depart="49.60">
        <route edges="9:8 8:0 0:1 1:2"/>
    </vehicle>
    <vehicle id="499" depart="49.90">
        <route edges="2:3 3:5 5:7"/>
    </vehicle>
    <vehicle id="501" depart="50.10">
        <route edges="13:12 12:1 1:0 0:10 10:11"/>
    </vehicle>
    <vehicle id="502" depart="50.20">
        <route edges="9:8 8:0 0:1 1:2 2:14"/>
    </vehicle>
    <vehicle id="505" depart="50.50">
        <route edges="11:10 10:0 0:1 1:2 2:3 3:18"/>
    </vehicle>
    <vehicle id="507" depart="50.70">
        <route edges="17:16 16:3 3:2"/>
    </vehicle>
    <vehicle id="508" depart="50.80">
        <route edges="6:4 4:0 0:1 1:2 2:3"/>
    </vehicle>
    <vehicle id="509" depart="50.90">
        <route edges="0:1 1:2"/>
    </vehicle>
    <vehicle id="510" depart="51.00">
        <route edges="2:1 1:0 0:10 10:11"/>
    </vehicle>
    <vehicle id="512" depart="51.20">
        <route edges="16:3 3:2 2:1 1:0 0:4 4:6"/>
    </vehicle>
    <vehicle id="513" depart="51.30">
        <route edges="3:2 2:1 1:0 0:10 10:11"/>
    </vehicle>
    <vehicle id="515" depart="51.50">
        <route edges="0:1 1:12 12:13"/>
    </vehicle>
    <vehicle id="517" depart="51.70">
        <route edges="7:5 5:3 3:2 2:1 1:0"/>
    </vehicle>
    <vehicle id="518" depart="51.80">
        <route edges="7:5 5:3 3:2"/>
    </vehicle>
    <vehicle id="519" depart="51.90">
        <route edges="15:14 14:2 2:1 1:12 12:13"/>
    </vehicle>
    <vehicle id="522" depart="52.20">
        <route edges="12:1 1:2 2:3 3:5"/>
    </vehicle>
    <vehicle id="523" depart="52.30">
        <route edges="6:4 4:0 0:1 1:2 2:3 3:5 5:7"/>
    </vehicle>
    <vehicle id="524" depart="52.40">
        <route edges="19:18 18:3 3:5 5:7"/>
    </vehicle>
    <vehicle id="525" depart="52.50">
        <route edges="0:1 1:2 2:3 3:18 18:19"/>
    </vehicle>
    <vehicle id="527" depart="52.70">
        <route edges="9:8 8:0 0:1 1:2 2:14"/>
    </vehicle>
    <vehicle id="530" depart="53.00">
        <route edges="1:2"/>
    </vehicle>
    <vehicle id="535" depart="53.50">
        <route edges="6:4 4:0 0:8 8:9"/>
    </vehicle>
    <vehicle id="536" depart="53.60">
        <route edges="15:14 14:2 2:1 1:0 0:10 10:11"/>
    </vehicle>
    <vehicle id="537" depart="53.70">
        <route edges="9:8 8:0 0:1 1:2 2:3 3:5 5:7"/>
    </vehicle>
    <vehicle id="538" depart="53.80">
        <route edges="5:3 3:16 16:17"/>
    </vehicle>
    <vehicle id="540" depart="54.00">
        <route edges="7:5 5:3 3:2 2:1 1:12 12:13"/>
    </vehicle>
    <vehicle id="542" depart="54.20">
        <route edges="19:18 18:3 3:2"/>
    </vehicle>
    <vehicle id="543" depart="54.30">
        <route edges="13:12 12:1"/>
    </vehicle>
    <vehicle id="544" depart="54.40">
        <route edges="19:18 18:3 3:2 2:1 1:0 0:4 4:6"/>
    </vehicle>