<?xml version="1.0" encoding="UTF-8"?>

<!-- generated on Thu Oct 23 22:34:46 2014 by SUMO duarouter Version 0.18.0
<?xml version="1.0" encoding="UTF-8"?>

<configuration xmlns:xsi="http://www.w3.org/2001/XMLSchema-instance" xsi:noNamespaceSchemaLocation="http://sumo.sf.net/xsd/duarouterConfiguration.xsd">

    <input>
        <net-file value="corridor.net.xml"/>
        <trip-files value="experimentos/corridor.p1.0.3.trips.xml"/>
    </input>

    <output>
        <output-file value="experimentos/corridor.p1.0.3.rou.xml"/>
    </output>

    <processing>
        <ignore-errors value="true"/>
    </processing>

    <random_number>
        <random value="true"/>
    </random_number>

</configuration>
-->

<routes xmlns:xsi="http://www.w3.org/2001/XMLSchema-instance" xsi:noNamespaceSchemaLocation="http://sumo.sf.net/xsd/routes_file.xsd">
    <vehicle id="3" depart="3.00">
        <route edges="15:14 14:2 2:3"/>
    </vehicle>
    <vehicle id="4" depart="4.00">
        <route edges="15:14 14:2 2:3 3:5"/>
    </vehicle>
    <vehicle id="7" depart="7.00">
        <route edges="9:8 8:0 0:4 4:6"/>
    </vehicle>
    <vehicle id="9" depart="9.00">
        <route edges="4:0 0:1"/>
    </vehicle>
    <vehicle id="10" depart="10.00">
        <route edges="19:18 18:3 3:5 5:7"/>
    </vehicle>
    <vehicle id="11" depart="11.00">
        <route edges="9:8 8:0 0:1 1:2 2:3 3:18 18:19"/>
    </vehicle>
    <vehicle id="15" depart="15.00">
        <route edges="7:5 5:3 3:2 2:1 1:0 0:4 4:6"/>
    </vehicle>
    <vehicle id="17" depart="17.00">
        <route edges="19:18 18:3 3:2 2:1 1:0 0:4"/>
    </vehicle>
    <vehicle id="18" depart="18.00">
        <route edges="17:16 16:3 3:2 2:1 1:0 0:4"/>
    </vehicle>
    <vehicle id="20" depart="20.00">
        <route edges="7:5 5:3 3:2 2:1 1:0 0:10 10:11"/>
    </vehicle>
    <vehicle id="21" depart="21.00">
        <route edges="1:2 2:3 3:18 18:19"/>
    </vehicle>
    <vehicle id="25" depart="25.00">
        <route edges="3:2 2:1 1:0 0:4 4:6"/>
    </vehicle>
    <vehicle id="26" depart="26.00">
        <route edges="6:4 4:0 0:1 1:2 2:3 3:16"/>
    </vehicle>
    <vehicle id="29" depart="29.00">
        <route edges="6:4 4:0 0:1 1:2 2:3 3:16"/>
    </vehicle>
    <vehicle id="30" depart="30.00">
        <route edges="7:5 5:3 3:16 16:17"/>
    </vehicle>
    <vehicle id="31" depart="31.00">
        <route edges="4:0 0:1 1:2 2:3 3:16 16:17"/>
    </vehicle>
    <vehicle id="33" depart="33.00">
        <route edges="7:5 5:3 3:18 18:19"/>
    </vehicle>
    <vehicle id="37" depart="37.00">
        <route edges="1:0 0:4 4:6"/>
    </vehicle>
    <vehicle id="38" depart="38.00">
        <route edges="8:0 0:1 1:2 2:3 3:18 18:19"/>
    </vehicle>
    <vehicle id="39" depart="39.00">
        <route edges="9:8 8:0 0:1 1:2 2:3 3:5 5:7"/>
    </vehicle>
    <vehicle id="40" depart="40.00">
        <route edges="19:18 18:3 3:2 2:1 1:0 0:10 10:11"/>
    </vehicle>
    <vehicle id="42" depart="42.00">
        <route edges="11:10 10:0 0:4 4:6"/>
    </vehicle>
    <vehicle id="44" depart="44.00">
        <route edges="17:16 16:3 3:2 2:1 1:0 0:10 10:11"/>
    </vehicle>
    <vehicle id="50" depart="50.00">
        <route edges="15:14 14:2 2:1 1:12 12:13"/>
    </vehicle>
    <vehicle id="51" depart="51.00">
        <route edges="15:14 14:2 2:3 3:16"/>
    </vehicle>
    <vehicle id="52" depart="52.00">
        <route edges="17:16 16:3 3:5 5:7"/>
    </vehicle>
    <vehicle id="53" depart="53.00">
        <route edges="6:4 4:0 0:1 1:2 2:3 3:16"/>
    </vehicle>
    <vehicle id="54" depart="54.00">
        <route edges="19:18 18:3 3:2 2:1 1:0 0:8"/>
    </vehicle>
    <vehicle id="55" depart="55.00">
        <route edges="15:14 14:2"/>
    </vehicle>
    <vehicle id="59" depart="59.00">
        <route edges="17:16 16:3 3:2 2:1 1:0 0:4 4:6"/>
    </vehicle>
    <vehicle id="60" depart="60.00">
        <route edges="5:3 3:2 2:1 1:0 0:4"/>
    </vehicle>
    <vehicle id="61" depart="61.00">
        <route edges="7:5 5:3 3:2 2:1 1:0 0:4 4:6"/>
    </vehicle>
    <vehicle id="62" depart="62.00">
        <route edges="4:0 0:1 1:2 2:3 3:18 18:19"/>
    </vehicle>
    <vehicle id="63" depart="63.00">
        <route edges="17:16 16:3 3:2 2:14 14:15"/>
    </vehicle>
    <vehicle id="64" depart="64.00">
        <route edges="7:5 5:3 3:2 2:1 1:0 0:8 8:9"/>
    </vehicle>
    <vehicle id="66" depart="66.00">
        <route edges="10:0 0:1"/>
    </vehicle>
    <vehicle id="67" depart="67.00">
        <route edges="6:4 4:0 0:1 1:2 2:3 3:5 5:7"/>
    </vehicle>
    <vehicle id="68" depart="68.00">
        <route edges="5:3 3:2 2:1 1:0 0:10 10:11"/>
    </vehicle>
    <vehicle id="69" depart="69.00">
        <route edges="15:14 14:2 2:1 1:0 0:8"/>
    </vehicle>
    <vehicle id="70" depart="70.00">
        <route edges="0:8 8:9"/>
    </vehicle>
    <vehicle id="71" depart="71.00">
        <route edges="10:0 0:1 1:2 2:3"/>
    </vehicle>
    <vehicle id="72" depart="72.00">
        <route edges="19:18 18:3 3:16"/>
    </vehicle>
    <vehicle id="76" depart="76.00">
        <route edges="0:4 4:6"/>
    </vehicle>
    <vehicle id="77" depart="77.00">
        <route edges="11:10 10:0 0:1 1:2 2:3 3:5"/>
    </vehicle>
    <vehicle id="78" depart="78.00">
        <route edges="9:8 8:0 0:1 1:2 2:3 3:5 5:7"/>
    </vehicle>
    <vehicle id="81" depart="81.00">
        <route edges="1:2"/>
    </vehicle>
    <vehicle id="82" depart="82.00">
        <route edges="15:14 14:2 2:1 1:12 12:13"/>
    </vehicle>
    <vehicle id="83" depart="83.00">
        <route edges="3:2 2:1"/>
    </vehicle>
    <vehicle id="84" depart="84.00">
        <route edges="19:18 18:3 3:2 2:1 1:0 0:4"/>
    </vehicle>
    <vehicle id="88" depart="88.00">
        <route edges="0:1 1:2 2:14 14:15"/>
    </vehicle>
    <vehicle id="90" depart="90.00">
        <route edges="6:4 4:0 0:10 10:11"/>
    </vehicle>
    <vehicle id="92" depart="92.00">
        <route edges="16:3 3:2 2:14 14:15"/>
    </vehicle>
    <vehicle id="97" depart="97.00">
        <route edges="5:3 3:2 2:1 1:0 0:10 10:11"/>
    </vehicle>
    <vehicle id="98" depart="98.00">
        <route edges="19:18 18:3 3:5"/>
    </vehicle>
    <vehicle id="99" depart="99.00">
        <route edges="8:0 0:1 1:2 2:14"/>
    </vehicle>
    <vehicle id="101" depart="101.00">
        <route edges="7:5 5:3 3:2 2:1 1:0 0:8 8:9"/>
    </vehicle>
    <vehicle id="102" depart="102.00">
        <route edges="15:14 14:2 2:1 1:0 0:4"/>
    </vehicle>
    <vehicle id="105" depart="105.00">
        <route edges="19:18 18:3"/>
    </vehicle>
    <vehicle id="106" depart="106.00">
        <route edges="11:10 10:0 0:1 1:2 2:3 3:5 5:7"/>
    </vehicle>
    <vehicle id="108" depart="108.00">
        <route edges="19:18 18:3 3:2 2:1 1:0 0:10 10:11"/>
    </vehicle>
    <vehicle id="109" depart="109.00">
        <route edges="0:1 1:2 2:14 14:15"/>
    </vehicle>
    <vehicle id="111" depart="111.00">
        <route edges="19:18 18:3 3:5 5:7"/>
    </vehicle>
    <vehicle id="115" depart="115.00">
        <route edges="9:8 8:0 0:10 10:11"/>
    </vehicle>
    <vehicle id="116" depart="116.00">
        <route edges="10:0 0:1 1:2 2:3"/>
    </vehicle>
    <vehicle id="118" depart="118.00">
        <route edges="5:3 3:2 2:1 1:12"/>
    </vehicle>
    <vehicle id="119" depart="119.00">
        <route edges="1:0 0:10"/>
    </vehicle>
    <vehicle id="120" depart="120.00">
        <route edges="6:4 4:0 0:10 10:11"/>
    </vehicle>
    <vehicle id="121" depart="121.00">
        <route edges="2:3 3:5 5:7"/>
    </vehicle>
    <vehicle id="122" depart="122.00">
        <route edges="7:5 5:3 3:2"/>
    </vehicle>
    <vehicle id="123" depart="123.00">
        <route edges="13:12 12:1 1:2 2:3 3:5 5:7"/>
    </vehicle>
    <vehicle id="124" depart="124.00">
        <route edges="11:10 10:0 0:1 1:12 12:13"/>
    </vehicle>
    <vehicle id="125" depart="125.00">
        <route edges="0:1 1:2 2:3 3:16 16:17"/>
    </vehicle>
    <vehicle id="126" depart="126.00">
        <route edges="17:16 16:3 3:18"/>
    </vehicle>
    <vehicle id="127" depart="127.00">
        <route edges="2:1 1:0 0:8 8:9"/>
    </vehicle>
    <vehicle id="133" depart="133.00">
        <route edges="19:18 18:3 3:5"/>
    </vehicle>
    <vehicle id="135" depart="135.00">
        <route edges="19:18 18:3 3:16"/>
    </vehicle>
    <vehicle id="138" depart="138.00">
        <route edges="9:8 8:0 0:1 1:2 2:14 14:15"/>
    </vehicle>
    <vehicle id="139" depart="139.00">
        <route edges="9:8 8:0 0:1 1:2 2:3 3:18"/>
    </vehicle>
    <vehicle id="140" depart="140.00">
        <route edges="19:18 18:3 3:2 2:1 1:0 0:8 8:9"/>
    </vehicle>
    <vehicle id="143" depart="143.00">
        <route edges="17:16 16:3 3:2 2:1 1:0"/>
    </vehicle>
    <vehicle id="144" depart="144.00">
        <route edges="18:3 3:2 2:1 1:0 0:4 4:6"/>
    </vehicle>
    <vehicle id="145" depart="145.00">
        <route edges="15:14 14:2 2:1 1:0 0:4 4:6"/>
    </vehicle>
    <vehicle id="147" depart="147.00">
        <route edges="13:12 12:1 1:0 0:4 4:6"/>
    </vehicle>
    <vehicle id="148" depart="148.00">
        <route edges="11:10 10:0 0:1 1:2 2:3 3:18"/>
    </vehicle>
    <vehicle id="150" depart="150.00">
        <route edges="7:5 5:3 3:2 2:1 1:0 0:4 4:6"/>
    </vehicle>
    <vehicle id="151" depart="151.00">
        <route edges="7:5 5:3 3:2"/>
    </vehicle>
    <vehicle id="152" depart="152.00">
        <route edges="7:5 5:3 3:2 2:14 14:15"/>
    </vehicle>
    <vehicle id="157" depart="157.00">
        <route edges="17:16 16:3 3:2 2:1 1:0 0:10"/>
    </vehicle>
    <vehicle id="158" depart="158.00">
        <route edges="15:14 14:2 2:1 1:0 0:10 10:11"/>
    </vehicle>
    <vehicle id="163" depart="163.00">
        <route edges="6:4 4:0 0:1 1:2 2:3 3:5"/>
    </vehicle>
    <vehicle id="167" depart="167.00">
        <route edges="19:18 18:3 3:2 2:1 1:0 0:4 4:6"/>
    </vehicle>
    <vehicle id="169" depart="169.00">
        <route edges="3:2 2:1 1:0 0:8"/>
    </vehicle>
    <vehicle id="171" depart="171.00">
        <route edges="7:5 5:3"/>
    </vehicle>
    <vehicle id="172" depart="172.00">
        <route edges="8:0 0:1 1:12 12:13"/>
    </vehicle>
    <vehicle id="174" depart="174.00">
        <route edges="1:0 0:4 4:6"/>
    </vehicle>
    <vehicle id="175" depart="175.00">
        <route edges="13:12 12:1 1:0 0:4 4:6"/>
    </vehicle>
    <vehicle id="176" depart="176.00">
        <route edges="13:12 12:1 1:0 0:8"/>
    </vehicle>
    <vehicle id="177" depart="177.00">
        <route edges="14:2 2:1 1:0 0:4 4:6"/>
    </vehicle>
    <vehicle id="178" depart="178.00">
        <route edges="17:16 16:3 3:5 5:7"/>
    </vehicle>
    <vehicle id="179" depart="179.00">
        <route edges="11:10 10:0 0:1 1:12 12:13"/>
    </vehicle>
    <vehicle id="180" depart="180.00">
        <route edges="6:4 4:0 0:1 1:12 12:13"/>
    </vehicle>
    <vehicle id="183" depart="183.00">
        <route edges="15:14 14:2 2:3 3:5 5:7"/>
    </vehicle>
    <vehicle id="185" depart="185.00">
        <route edges="13:12 12:1 1:0 0:4"/>
    </vehicle>
    <vehicle id="187" depart="187.00">
        <route edges="8:0 0:1 1:2 2:3"/>
    </vehicle>
    <vehicle id="188" depart="188.00">
        <route edges="9:8 8:0 0:1 1:2 2:3 3:5"/>
    </vehicle>
    <vehicle id="189" depart="189.00">
        <route edges="13:12 12:1 1:2 2:14 14:15"/>
    </vehicle>
    <vehicle id="192" depart="192.00">
        <route edges="7:5 5:3 3:2 2:1 1:0 0:8 8:9"/>
    </vehicle>
    <vehicle id="195" depart="195.00">
        <route edges="6:4 4:0 0:1 1:12"/>
    </vehicle>
    <vehicle id="196" depart="196.00">
        <route edges="17:16 16:3 3:2 2:1 1:0 0:4 4:6"/>
    </vehicle>
    <vehicle id="198" depart="198.00">
        <route edges="11:10 10:0 0:1 1:2 2:3 3:18 18:19"/>
    </vehicle>
    <vehicle id="200" depart="200.00">
        <route edges="7:5 5:3 3:18 18:19"/>
    </vehicle>
    <vehicle id="201" depart="201.00">
        <route edges="19:18 18:3 3:2"/>
    </vehicle>
    <vehicle id="203" depart="203.00">
        <route edges="9:8 8:0 0:4 4:6"/>
    </vehicle>
    <vehicle id="204" depart="204.00">
        <route edges="14:2 2:3 3:5 5:7"/>
    </vehicle>
    <vehicle id="205" depart="205.00">
        <route edges="13:12 12:1 1:0 0:8 8:9"/>
    </vehicle>
    <vehicle id="207" depart="207.00">
        <route edges="10:0 0:1 1:2 2:3 3:18"/>
    </vehicle>
    <vehicle id="208" depart="208.00">
        <route edges="0:4 4:6"/>
    </vehicle>
    <vehicle id="210" depart="210.00">
        <route edges="10:0 0:1 1:2 2:3 3:5 5:7"/>
    </vehicle>
    <vehicle id="211" depart="211.00">
        <route edges="15:14 14:2 2:3 3:5 5:7"/>
    </vehicle>
    <vehicle id="212" depart="212.00">
        <route edges="7:5 5:3 3:16 16:17"/>
    </vehicle>
    <vehicle id="215" depart="215.00">
        <route edges="7:5 5:3 3:2 2:1 1:0 0:10 10:11"/>
    </vehicle>
    <vehicle id="216" depart="216.00">
        <route edges="6:4 4:0 0:1 1:2 2:3 3:5 5:7"/>
    </vehicle>
    <vehicle id="217" depart="217.00">
        <route edges="8:0 0:1 1:2 2:3 3:5"/>
    </vehicle>
    <vehicle id="218" depart="218.00">
        <route edges="7:5 5:3 3:2 2:1"/>
    </vehicle>
    <vehicle id="219" depart="219.00">
        <route edges="11:10 10:0 0:4 4:6"/>
    </vehicle>
    <vehicle id="220" depart="220.00">
        <route edges="19:18 18:3 3:2 2:14 14:15"/>
    </vehicle>
    <vehicle id="221" depart="221.00">
        <route edges="3:18 18:19"/>
    </vehicle>
    <vehicle id="223" depart="223.00">
        <route edges="5:3 3:2 2:14 14:15"/>
    </vehicle>
    <vehicle id="227" depart="227.00">
        <route edges="11:10 10:0 0:1 1:2 2:3 3:5"/>
    </vehicle>
    <vehicle id="228" depart="228.00">
        <route edges="19:18 18:3 3:2 2:1 1:12 12:13"/>
    </vehicle>
    <vehicle id="230" depart="230.00">
        <route edges="18:3 3:2 2:1 1:0 0:4 4:6"/>
    </vehicle>
    <vehicle id="232" depart="232.00">
        <route edges="16:3 3:5 5:7"/>
    </vehicle>
    <vehicle id="234" depart="234.00">
        <route edges="0:1 1:12"/>
    </vehicle>
    <vehicle id="235" depart="235.00">
        <route edges="15:14 14:2 2:1 1:12 12:13"/>
    </vehicle>
    <vehicle id="237" depart="237.00">
        <route edges="3:2 2:1 1:12 12:13"/>
    </vehicle>
    <vehicle id="238" depart="238.00">
        <route edges="11:10 10:0 0:1 1:12 12:13"/>
    </vehicle>
    <vehicle id="241" depart="241.00">
        <route edges="17:16 16:3 3:5 5:7"/>
    </vehicle>
    <vehicle id="252" depart="252.00">
        <route edges="7:5 5:3 3:2"/>
    </vehicle>
    <vehicle id="253" depart="253.00">
        <route edges="14:2 2:1 1:0 0:8 8:9"/>
    </vehicle>
    <vehicle id="258" depart="258.00">
        <route edges="9:8 8:0 0:4"/>
    </vehicle>
    <vehicle id="262" depart="262.00">
        <route edges="17:16 16:3 3:5 5:7"/>
    </vehicle>
    <vehicle id="264" depart="264.00">
        <route edges="13:12 12:1 1:2 2:3 3:16 16:17"/>
    </vehicle>
    <vehicle id="267" depart="267.00">
        <route edges="4:0 0:1 1:12 12:13"/>
    </vehicle>
    <vehicle id="268" depart="268.00">
        <route edges="14:2 2:3 3:5 5:7"/>
    </vehicle>
    <vehicle id="269" depart="269.00">
        <route edges="6:4 4:0 0:1 1:2 2:3 3:5 5:7"/>
    </vehicle>
    <vehicle id="270" depart="270.00">
        <route edges="13:12 12:1"/>
    </vehicle>
    <vehicle id="271" depart="271.00">
        <route edges="7:5 5:3 3:18 18:19"/>
    </vehicle>
    <vehicle id="273" depart="273.00">
        <route edges="7:5 5:3 3:2 2:1 1:0 0:4"/>
    </vehicle>
    <vehicle id="276" depart="276.00">
        <route edges="8:0"/>
    </vehicle>
    <vehicle id="277" depart="277.00">
        <route edges="19:18 18:3 3:5"/>
    </vehicle>
    <vehicle id="278" depart="278.00">
        <route edges="6:4 4:0 0:8 8:9"/>
    </vehicle>
    <vehicle id="281" depart="281.00">
        <route edges="17:16 16:3 3:5 5:7"/>
    </vehicle>
    <vehicle id="284" depart="284.00">
        <route edges="7:5 5:3 3:2 2:1 1:0 0:10 10:11"/>
    </vehicle>
    <vehicle id="285" depart="285.00">
        <route edges="17:16 16:3 3:5 5:7"/>
    </vehicle>
    <vehicle id="286" depart="286.00">
        <route edges="4:0 0:1 1:2 2:3 3:5 5:7"/>
    </vehicle>
    <vehicle id="288" depart="288.00">
        <route edges="19:18 18:3 3:2 2:14 14:15"/>
    </vehicle>
    <vehicle id="290" depart="290.00">
        <route edges="5:3 3:2 2:1 1:0 0:4"/>
    </vehicle>
    <vehicle id="291" depart="291.00">
        <route edges="4:0 0:1 1:2 2:3 3:16 16:17"/>
    </vehicle>
    <vehicle id="292" depart="292.00">
        <route edges="19:18 18:3 3:2 2:1 1:0 0:10"/>
    </vehicle>
    <vehicle id="295" depart="295.00">
        <route edges="0:1 1:2 2:3 3:5"/>
    </vehicle>
    <vehicle id="297" depart="297.00">
        <route edges="4:0 0:1 1:2 2:14"/>
    </vehicle>
    <vehicle id="298" depart="298.00">
        <route edges="0:1 1:12 12:13"/>
    </vehicle>
    <vehicle id="299" depart="299.00">
        <route edges="15:14 14:2 2:1 1:0 0:10"/>
    </vehicle>
    <vehicle id="300" depart="300.00">
        <route edges="1:2 2:3 3:16"/>
    </vehicle>
    <vehicle id="303" depart="303.00">
        <route edges="2:14 14:15"/>
    </vehicle>
    <vehicle id="304" depart="304.00">
        <route edges="2:3 3:16 16:17"/>
    </vehicle>
    <vehicle id="305" depart="305.00">
        <route edges="8:0 0:1 1:12"/>
    </vehicle>
    <vehicle id="307" depart="307.00">
        <route edges="18:3 3:16 16:17"/>
    </vehicle>
    <vehicle id="311" depart="311.00">
        <route edges="19:18 18:3 3:2 2:1"/>
    </vehicle>
    <vehicle id="312" depart="312.00">
        <route edges="7:5 5:3 3:2 2:1 1:12"/>
    </vehicle>
    <vehicle id="313" depart="313.00">
        <route edges="5:3 3:2"/>
    </vehicle>
    <vehicle id="314" depart="314.00">
        <route edges="6:4 4:0 0:1 1:12 12:13"/>
    </vehicle>
    <vehicle id="317" depart="317.00">
        <route edges="11:10 10:0 0:8"/>
    </vehicle>
    <vehicle id="322" depart="322.00">
        <route edges="7:5 5:3 3:2 2:1 1:12 12:13"/>
    </vehicle>
    <vehicle id="323" depart="323.00">
        <route edges="7:5 5:3 3:2 2:14 14:15"/>
    </vehicle>
    <vehicle id="326" depart="326.00">
        <route edges="15:14 14:2 2:1 1:0 0:4 4:6"/>
    </vehicle>
    <vehicle id="328" depart="328.00">
        <route edges="19:18 18:3 3:5"/>
    </vehicle>
    <vehicle id="329" depart="329.00">
        <route edges="6:4 4:0 0:1 1:2 2:3 3:16 16:17"/>
    </vehicle>
    <vehicle id="335" depart="335.00">
        <route edges="16:3 3:2 2:1 1:0 0:4"/>
    </vehicle>
    <vehicle id="336" depart="336.00">
        <route edges="7:5 5:3 3:2 2:1 1:0 0:10 10:11"/>
    </vehicle>
    <vehicle id="339" depart="339.00">
        <route edges="7:5 5:3 3:2 2:1 1:0 0:8 8:9"/>
    </vehicle>
    <vehicle id="340" depart="340.00">
        <route edges="9:8 8:0 0:10 10:11"/>
    </vehicle>
    <vehicle id="341" depart="341.00">
        <route edges="18:3 3:2 2:1 1:0"/>
    </vehicle>
    <vehicle id="346" depart="346.00">
        <route edges="13:12 12:1 1:0"/>
    </vehicle>
    <vehicle id="347" depart="347.00">
        <route edges="15:14 14:2 2:1 1:0 0:8 8:9"/>
    </vehicle>
    <vehicle id="348" depart="348.00">
        <route edges="7:5 5:3 3:2 2:1 1:12"/>
    </vehicle>
    <vehicle id="349" depart="349.00">
        <route edges="7:5 5:3 3:2 2:1 1:0 0:4 4:6"/>
    </vehicle>
    <vehicle id="350" depart="350.00">
        <route edges="13:12 12:1 1:0 0:4 4:6"/>
    </vehicle>
    <vehicle id="351" depart="351.00">
        <route edges="13:12 12:1 1:0 0:4 4:6"/>
    </vehicle>
    <vehicle id="353" depart="353.00">
        <route edges="18:3 3:2 2:1 1:0 0:4 4:6"/>
    </vehicle>
    <vehicle id="355" depart="355.00">
        <route edges="5:3 3:16"/>
    </vehicle>
    <vehicle id="356" depart="356.00">
        <route edges="7:5 5:3 3:18 18:19"/>
    </vehicle>
    <vehicle id="361" depart="361.00">
        <route edges="18:3 3:2 2:1"/>
    </vehicle>
    <vehicle id="362" depart="362.00">
        <route edges="6:4 4:0 0:10"/>
    </vehicle>
    <vehicle id="363" depart="363.00">
        <route edges="6:4 4:0 0:1 1:2 2:3 3:16 16:17"/>
    </vehicle>
    <vehicle id="365" depart="365.00">
        <route edges="9:8 8:0 0:1 1:2 2:14 14:15"/>
    </vehicle>
    <vehicle id="367" depart="367.00">
        <route edges="12:1 1:0 0:4 4:6"/>
    </vehicle>
    <vehicle id="368" depart="368.00">
        <route edges="0:1 1:2 2:3 3:5"/>
    </vehicle>
    <vehicle id="369" depart="369.00">
        <route edges="4:0 0:1 1:2 2:3 3:16"/>
    </vehicle>
    <vehicle id="371" depart="371.00">
        <route edges="7:5 5:3 3:18 18:19"/>
    </vehicle>
    <vehicle id="372" depart="372.00">
        <route edges="7:5 5:3 3:2 2:1 1:0 0:8 8:9"/>
    </vehicle>
    <vehicle id="373" depart="373.00">
        <route edges="11:10 10:0 0:1 1:2 2:3 3:5 5:7"/>
    </vehicle>
    <vehicle id="375" depart="375.00">
        <route edges="6:4 4:0"/>
    </vehicle>
    <vehicle id="376" depart="376.00">
        <route edges="16:3 3:2"/>
    </vehicle>
    <vehicle id="380" depart="380.00">
        <route edges="6:4 4:0 0:1 1:12 12:13"/>
    </vehicle>
    <vehicle id="382" depart="382.00">
        <route edges="13:12 12:1 1:0"/>
    </vehicle>
    <vehicle id="383" depart="383.00">
        <route edges="10:0 0:1 1:2 2:3"/>
    </vehicle>
    <vehicle id="384" depart="384.00">
        <route edges="11:10 10:0 0:8 8:9"/>
    </vehicle>
    <vehicle id="388" depart="388.00">
        <route edges="1:0 0:4 4:6"/>
    </vehicle>
    <vehicle id="390" depart="390.00">
        <route edges="17:16 16:3 3:18"/>
    </vehicle>
    <vehicle id="393" depart="393.00">
        <route edges="14:2 2:1 1:0 0:10 10:11"/>
    </vehicle>
    <vehicle id="394" depart="394.00">
        <route edges="11:10 10:0 0:1 1:12 12:13"/>
    </vehicle>
    <vehicle id="395" depart="395.00">
        <route edges="17:16 16:3 3:2 2:1 1:12 12:13"/>
    </vehicle>
    <vehicle id="396" depart="396.00">
        <route edges="6:4 4:0 0:1 1:12"/>
    </vehicle>
    <vehicle id="397" depart="397.00">
        <route edges="12:1 1:0 0:8 8:9"/>
    </vehicle>
    <vehicle id="398" depart="398.00">
        <route edges="9:8 8:0 0:4"/>
    </vehicle>
    <vehicle id="399" depart="399.00">
        <route edges="3:2 2:1 1:0 0:4 4:6"/>
    </vehicle>
    <vehicle id="400" depart="400.00">
        <route edges="9:8 8:0 0:1 1:2 2:3 3:16 16:17"/>
    </vehicle>
    <vehicle id="403" depart="403.00">
        <route edges="1:0 0:4 4:6"/>
    </vehicle>
    <vehicle id="406" depart="406.00">
        <route edges="19:18 18:3 3:2 2:1 1:0 0:8 8:9"/>
    </vehicle>
    <vehicle id="407" depart="407.00">
        <route edges="10:0 0:1 1:2 2:14 14:15"/>
    </vehicle>
    <vehicle id="409" depart="409.00">
        <route edges="11:10 10:0 0:4 4:6"/>
    </vehicle>
    <vehicle id="410" depart="410.00">
        <route edges="6:4 4:0 0:1 1:2 2:3 3:18 18:19"/>
    </vehicle>
    <vehicle id="411" depart="411.00">
        <route edges="18:3 3:2 2:1 1:0 0:4 4:6"/>
    </vehicle>
    <vehicle id="414" depart="414.00">
        <route edges="11:10 10:0 0:1 1:12 12:13"/>
    </vehicle>
    <vehicle id="416" depart="416.00">
        <route edges="11:10 10:0 0:4 4:6"/>
    </vehicle>
    <vehicle id="417" depart="417.00">
        <route edges="10:0 0:1 1:2 2:3 3:5"/>
    </vehicle>
    <vehicle id="422" depart="422.00">
        <route edges="16:3 3:2 2:1 1:0 0:4"/>
    </vehicle>
    <vehicle id="423" depart="423.00">
        <route edges="13:12 12:1"/>
    </vehicle>
    <vehicle id="426" depart="426.00">
        <route edges="4:0 0:1 1:2 2:3 3:5 5:7"/>
    </vehicle>
    <vehicle id="427" depart="427.00">
        <route edges="1:0 0:8 8:9"/>
    </vehicle>
    <vehicle id="429" depart="429.00">
        <route edges="7:5 5:3 3:2 2:1 1:0 0:4 4:6"/>
    </vehicle>
    <vehicle id="430" depart="430.00">
        <route edges="17:16 16:3 3:2 2:1 1:0"/>
    </vehicle>
    <vehicle id="431" depart="431.00">
        <route edges="6:4 4:0 0:1 1:12 12:13"/>
    </vehicle>
    <vehicle id="434" depart="434.00">
        <route edges="13:12 12:1 1:2 2:3"/>
    </vehicle>
    <vehicle id="438" depart="438.00">
        <route edges="10:0 0:1 1:2 2:14 14:15"/>
    </vehicle>
    <vehicle id="439" depart="439.00">
        <route edges="15:14 14:2 2:3 3:5 5:7"/>
    </vehicle>
    <vehicle id="440" depart="440.00">
        <route edges="6:4 4:0 0:1 1:2 2:3 3:16 16:17"/>
    </vehicle>
    <vehicle id="441" depart="441.00">
        <route edges="1:2 2:14"/>
    </vehicle>
    <vehicle id="442" depart="442.00">
        <route edges="7:5 5:3 3:2 2:1 1:0 0:8 8:9"/>
    </vehicle>
    <vehicle id="444" depart="444.00">
        <route edges="6:4 4:0 0:1 1:2 2:3 3:5"/>
    </vehicle>
    <vehicle id="447" depart="447.00">
        <route edges="8:0 0:1 1:2 2:3 3:5 5:7"/>
    </vehicle>
    <vehicle id="448" depart="448.00">
        <route edges="14:2 2:3 3:18 18:19"/>
    </vehicle>
    <vehicle id="451" depart="451.00">
        <route edges="10:0 0:1"/>
    </vehicle>
    <vehicle id="452" depart="452.00">
        <route edges="2:1 1:0 0:4 4:6"/>
    </vehicle>
    <vehicle id="453" depart="453.00">
        <route edges="13:12 12:1 1:0 0:8 8:9"/>
    </vehicle>
    <vehicle id="454" depart="454.00">
        <route edges="3:16"/>
    </vehicle>
    <vehicle id="456" depart="456.00">
        <route edges="6:4 4:0 0:1 1:2 2:3 3:5 5:7"/>
    </vehicle>
    <vehicle id="457" depart="457.00">
        <route edges="5:3"/>
    </vehicle>
    <vehicle id="459" depart="459.00">
        <route edges="9:8 8:0 0:4 4:6"/>
    </vehicle>
    <vehicle id="460" depart="460.00">
        <route edges="11:10 10:0 0:4 4:6"/>
    </vehicle>
    <vehicle id="463" depart="463.00">
        <route edges="3:2 2:1 1:0 0:4"/>
    </vehicle>
    <vehicle id="467" depart="467.00">
        <route edges="5:3 3:16"/>
    </vehicle>
    <vehicle id="468" depart="468.00">
        <route edges="15:14 14:2 2:1 1:0 0:4 4:6"/>
    </vehicle>
    <vehicle id="470" depart="470.00">
        <route edges="6:4 4:0 0:1 1:12"/>
    </vehicle>
    <vehicle id="472" depart="472.00">
        <route edges="13:12 12:1 1:2 2:14 14:15"/>
    </vehicle>
    <vehicle id="473" depart="473.00">
        <route edges="14:2 2:3 3:16 16:17"/>
    </vehicle>
    <vehicle id="474" depart="474.00">
        <route edges="12:1 1:2 2:3 3:5"/>
    </vehicle>
    <vehicle id="475" depart="475.00">
        <route edges="3:2 2:1 1:0"/>
    </vehicle>
    <vehicle id="479" depart="479.00">
        <route edges="2:14 14:15"/>
    </vehicle>
    <vehicle id="481" depart="481.00">
        <route edges="13:12 12:1 1:0 0:4"/>
    </vehicle>
    <vehicle id="482" depart="482.00">
        <route edges="19:18 18:3 3:16"/>
    </vehicle>
    <vehicle id="484" depart="484.00">
        <route edges="3:5"/>
    </vehicle>
    <vehicle id="485" depart="485.00">
        <route edges="16:3 3:2 2:1 1:12 12:13"/>
    </vehicle>
    <vehicle id="488" depart="488.00">
        <route edges="9:8 8:0 0:1 1:2 2:14 14:15"/>
    </vehicle>
    <vehicle id="489" depart="489.00">
        <route edges="6:4 4:0 0:1 1:12 12:13"/>
    </vehicle>
    <vehicle id="490" depart="490.00">
        <route edges="19:18 18:3 3:5 5:7"/>
    </vehicle>
    <vehicle id="493" depart="493.00">
        <route edges="6:4 4:0 0:10 10:11"/>
    </vehicle>
    <vehicle id="494" depart="494.00">
        <route edges="19:18 18:3 3:2 2:1 1:0 0:4"/>
    </vehicle>
    <vehicle id="495" depart="495.00">
        <route edges="9:8 8:0 0:4 4:6"/>
    </vehicle>
    <vehicle id="497" depart="497.00">
        <route edges="15:14 14:2 2:1 1:0 0:4"/>
    </vehicle>
    <vehicle id="498" depart="498.00">
        <route edges="0:1 1:2 2:3 3:5"/>
    </vehicle>
    <vehicle id="499" depart="499.00">
        <route edges="11:10 10:0 0:1 1:2 2:3"/>
    </vehicle>
    <vehicle id="500" depart="500.00">
        <route edges="0:8 8:9"/>
    </vehicle>
    <vehicle id="502" depart="502.00">
        <route edges="0:1 1:2 2:3 3:5 5:7"/>
    </vehicle>
    <vehicle id="504" depart="504.00">
        <route edges="4:0 0:1 1:2 2:3 3:18 18:19"/>
    </vehicle>
    <vehicle id="507" depart="507.00">
        <route edges="7:5 5:3 3:2 2:14 14:15"/>
    </vehicle>
    <vehicle id="509" depart="509.00">
        <route edges="13:12 12:1 1:0 0:4 4:6"/>
    </vehicle>
    <vehicle id="510" depart="510.00">
        <route edges="15:14 14:2 2:1 1:0 0:8 8:9"/>
    </vehicle>
    <vehicle id="511" depart="511.00">
        <route edges="6:4 4:0 0:1 1:2 2:3 3:16 16:17"/>
    </vehicle>
    <vehicle id="513" depart="513.00">
        <route edges="6:4 4:0 0:1 1:2 2:3 3:16 16:17"/>
    </vehicle>
    <vehicle id="514" depart="514.00">
        <route edges="15:14 14:2 2:3 3:5"/>
    </vehicle>
    <vehicle id="515" depart="515.00">
        <route edges="2:3 3:18 18:19"/>
    </vehicle>
    <vehicle id="519" depart="519.00">
        <route edges="0:4 4:6"/>
    </vehicle>
    <vehicle id="523" depart="523.00">
        <route edges="7:5 5:3 3:2 2:1 1:0 0:4"/>
    </vehicle>
    <vehicle id="525" depart="525.00">
        <route edges="6:4 4:0 0:1"/>
    </vehicle>
    <vehicle id="526" depart="526.00">
        <route edges="13:12 12:1 1:0 0:10"/>
    </vehicle>
    <vehicle id="529" depart="529.00">
        <route edges="11:10 10:0 0:8"/>
    </vehicle>
    <vehicle id="531" depart="531.00">
        <route edges="6:4 4:0 0:1 1:2 2:3"/>
    </vehicle>
    <vehicle id="533" depart="533.00">
        <route edges="9:8 8:0 0:4 4:6"/>
    </vehicle>
    <vehicle id="534" depart="534.00">
        <route edges="17:16 16:3 3:2 2:1 1:0 0:4 4:6"/>
    </vehicle>
    <vehicle id="535" depart="535.00">
        <route edges="18:3 3:5 5:7"/>
    </vehicle>
    <vehicle id="537" depart="537.00">
        <route edges="7:5 5:3 3:2 2:1 1:0 0:10 10:11"/>
    </vehicle>
    <vehicle id="539" depart="539.00">