<?xml version="1.0" encoding="UTF-8"?>

<!-- generated on Thu Oct 23 22:34:13 2014 by SUMO duarouter Version 0.18.0
<?xml version="1.0" encoding="UTF-8"?>

<configuration xmlns:xsi="http://www.w3.org/2001/XMLSchema-instance" xsi:noNamespaceSchemaLocation="http://sumo.sf.net/xsd/duarouterConfiguration.xsd">

    <input>
        <net-file value="corridor.net.xml"/>
        <trip-files value="experimentos/corridor.p0.4.6.trips.xml"/>
    </input>

    <output>
        <output-file value="experimentos/corridor.p0.4.6.rou.xml"/>
    </output>

    <processing>
        <ignore-errors value="true"/>
    </processing>

    <random_number>
        <random value="true"/>
    </random_number>

</configuration>
-->

<routes xmlns:xsi="http://www.w3.org/2001/XMLSchema-instance" xsi:noNamespaceSchemaLocation="http://sumo.sf.net/xsd/routes_file.xsd">
    <vehicle id="0" depart="0.00">
        <route edges="8:0 0:10 10:11"/>
    </vehicle>
    <vehicle id="2" depart="0.80">
        <route edges="11:10 10:0 0:4 4:6"/>
    </vehicle>
    <vehicle id="3" depart="1.20">
        <route edges="6:4 4:0 0:1 1:12 12:13"/>
    </vehicle>
    <vehicle id="6" depart="2.40">
        <route edges="13:12 12:1 1:0 0:8 8:9"/>
    </vehicle>
    <vehicle id="8" depart="3.20">
        <route edges="6:4 4:0 0:1 1:12 12:13"/>
    </vehicle>
    <vehicle id="11" depart="4.40">
        <route edges="17:16 16:3 3:2 2:1 1:12 12:13"/>
    </vehicle>
    <vehicle id="13" depart="5.20">
        <route edges="17:16 16:3"/>
    </vehicle>
    <vehicle id="14" depart="5.60">
        <route edges="12:1 1:2 2:3"/>
    </vehicle>
    <vehicle id="18" depart="7.20">
        <route edges="3:2 2:1 1:0 0:10"/>
    </vehicle>
    <vehicle id="19" depart="7.60">
        <route edges="18:3 3:2 2:1 1:0 0:4 4:6"/>
    </vehicle>
    <vehicle id="26" depart="10.40">
        <route edges="11:10 10:0 0:1 1:2 2:3 3:18 18:19"/>
    </vehicle>
    <vehicle id="27" depart="10.80">
        <route edges="18:3 3:2 2:1 1:0 0:10 10:11"/>
    </vehicle>
    <vehicle id="28" depart="11.20">
        <route edges="11:10 10:0 0:1 1:2 2:14 14:15"/>
    </vehicle>
    <vehicle id="29" depart="11.60">
        <route edges="6:4 4:0 0:1 1:2 2:3 3:5"/>
    </vehicle>
    <vehicle id="30" depart="12.00">
        <route edges="6:4 4:0 0:1 1:2 2:3"/>
    </vehicle>
    <vehicle id="31" depart="12.40">
        <route edges="11:10 10:0 0:1 1:2 2:3 3:16 16:17"/>
    </vehicle>
    <vehicle id="32" depart="12.80">
        <route edges="15:14 14:2 2:1 1:12 12:13"/>
    </vehicle>
    <vehicle id="35" depart="14.00">
        <route edges="7:5 5:3 3:16 16:17"/>
    </vehicle>
    <vehicle id="36" depart="14.40">
        <route edges="11:10 10:0 0:1 1:2 2:3 3:16 16:17"/>
    </vehicle>
    <vehicle id="38" depart="15.20">
        <route edges="16:3 3:2 2:1 1:0 0:10 10:11"/>
    </vehicle>
    <vehicle id="39" depart="15.60">
        <route edges="7:5 5:3 3:2 2:1 1:0"/>
    </vehicle>
    <vehicle id="41" depart="16.40">
        <route edges="6:4 4:0 0:10 10:11"/>
    </vehicle>
    <vehicle id="42" depart="16.80">
        <route edges="6:4 4:0"/>
    </vehicle>
    <vehicle id="43" depart="17.20">
        <route edges="6:4 4:0 0:1 1:2 2:3 3:16"/>
    </vehicle>
    <vehicle id="45" depart="18.00">
        <route edges="3:2 2:1 1:0 0:4"/>
    </vehicle>
    <vehicle id="49" depart="19.60">
        <route edges="1:0 0:10"/>
    </vehicle>
    <vehicle id="50" depart="20.00">
        <route edges="3:2 2:1 1:0 0:4 4:6"/>
    </vehicle>
    <vehicle id="52" depart="20.80">
        <route edges="6:4 4:0 0:1 1:2 2:14"/>
    </vehicle>
    <vehicle id="53" depart="21.20">
        <route edges="6:4 4:0 0:1 1:2 2:14 14:15"/>
    </vehicle>
    <vehicle id="54" depart="21.60">
        <route edges="9:8 8:0 0:1 1:12 12:13"/>
    </vehicle>
    <vehicle id="56" depart="22.40">
        <route edges="19:18 18:3 3:2 2:1 1:12 12:13"/>
    </vehicle>
    <vehicle id="57" depart="22.80">
        <route edges="7:5 5:3 3:16"/>
    </vehicle>
    <vehicle id="58" depart="23.20">
        <route edges="6:4 4:0 0:1"/>
    </vehicle>
    <vehicle id="59" depart="23.60">
        <route edges="11:10 10:0 0:1"/>
    </vehicle>
    <vehicle id="60" depart="24.00">
        <route edges="19:18 18:3 3:2 2:1"/>
    </vehicle>
    <vehicle id="66" depart="26.40">
        <route edges="6:4 4:0 0:1 1:2 2:3 3:5 5:7"/>
    </vehicle>
    <vehicle id="67" depart="26.80">
        <route edges="13:12 12:1 1:2 2:3 3:16"/>
    </vehicle>
    <vehicle id="68" depart="27.20">
        <route edges="17:16 16:3 3:2 2:14 14:15"/>
    </vehicle>
    <vehicle id="69" depart="27.60">
        <route edges="15:14 14:2 2:1 1:12 12:13"/>
    </vehicle>
    <vehicle id="70" depart="28.00">
        <route edges="4:0 0:1 1:2 2:3 3:5 5:7"/>
    </vehicle>
    <vehicle id="71" depart="28.40">
        <route edges="11:10 10:0 0:1 1:2 2:14 14:15"/>
    </vehicle>
    <vehicle id="75" depart="30.00">
        <route edges="4:0 0:1 1:2"/>
    </vehicle>
    <vehicle id="77" depart="30.80">
        <route edges="3:2 2:1 1:0 0:10 10:11"/>
    </vehicle>
    <vehicle id="80" depart="32.00">
        <route edges="0:1 1:2 2:3 3:5 5:7"/>
    </vehicle>
    <vehicle id="81" depart="32.40">
        <route edges="14:2 2:3 3:16 16:17"/>
    </vehicle>
    <vehicle id="83" depart="33.20">
        <route edges="8:0 0:1 1:2 2:14"/>
    </vehicle>
    <vehicle id="84" depart="33.60">
        <route edges="7:5 5:3"/>
    </vehicle>
    <vehicle id="85" depart="34.00">
        <route edges="9:8 8:0 0:1 1:2"/>
    </vehicle>
    <vehicle id="86" depart="34.40">
        <route edges="4:0 0:1 1:2 2:3"/>
    </vehicle>
    <vehicle id="88" depart="35.20">
        <route edges="9:8 8:0 0:4 4:6"/>
    </vehicle>
    <vehicle id="89" depart="35.60">
        <route edges="7:5 5:3 3:18 18:19"/>
    </vehicle>
    <vehicle id="92" depart="36.80">
        <route edges="19:18 18:3 3:2 2:1 1:0 0:10 10:11"/>
    </vehicle>
    <vehicle id="96" depart="38.40">
        <route edges="15:14 14:2 2:1 1:0 0:8 8:9"/>
    </vehicle>
    <vehicle id="101" depart="40.40">
        <route edges="2:3 3:5 5:7"/>
    </vehicle>
    <vehicle id="102" depart="40.80">
        <route edges="3:2 2:1 1:0 0:10"/>
    </vehicle>
    <vehicle id="103" depart="41.20">
        <route edges="7:5 5:3 3:2 2:1 1:0 0:10"/>
    </vehicle>
    <vehicle id="104" depart="41.60">
        <route edges="3:2 2:1 1:0 0:10 10:11"/>
    </vehicle>
    <vehicle id="105" depart="42.00">
        <route edges="15:14 14:2 2:1 1:0 0:4 4:6"/>
    </vehicle>
    <vehicle id="106" depart="42.40">
        <route edges="5:3 3:2 2:1 1:0 0:8 8:9"/>
    </vehicle>
    <vehicle id="107" depart="42.80">
        <route edges="2:1 1:0 0:4 4:6"/>
    </vehicle>
    <vehicle id="109" depart="43.60">
        <route edges="11:10 10:0 0:1 1:2 2:14 14:15"/>
    </vehicle>
    <vehicle id="110" depart="44.00">
        <route edges="13:12 12:1 1:0 0:8 8:9"/>
    </vehicle>
    <vehicle id="113" depart="45.20">
        <route edges="19:18 18:3 3:16 16:17"/>
    </vehicle>
    <vehicle id="114" depart="45.60">
        <route edges="11:10 10:0 0:1 1:2 2:3 3:18 18:19"/>
    </vehicle>
    <vehicle id="115" depart="46.00">
        <route edges="12:1 1:0 0:8"/>
    </vehicle>
    <vehicle id="117" depart="46.80">
        <route edges="8:0 0:10 10:11"/>
    </vehicle>
    <vehicle id="118" depart="47.20">
        <route edges="7:5 5:3 3:2"/>
    </vehicle>
    <vehicle id="120" depart="48.00">
        <route edges="7:5 5:3"/>
    </vehicle>
    <vehicle id="122" depart="48.80">
        <route edges="6:4 4:0 0:1 1:2 2:3 3:5 5:7"/>
    </vehicle>
    <vehicle id="123" depart="49.20">
        <route edges="4:0 0:1 1:12 12:13"/>
    </vehicle>
    <vehicle id="126" depart="50.40">
        <route edges="8:0 0:1 1:2 2:3 3:5 5:7"/>
    </vehicle>
    <vehicle id="129" depart="51.60">
        <route edges="15:14 14:2 2:1 1:0 0:4"/>
    </vehicle>
    <vehicle id="130" depart="52.00">
        <route edges="7:5 5:3 3:2"/>
    </vehicle>
    <vehicle id="131" depart="52.40">
        <route edges="9:8 8:0 0:1 1:2 2:3 3:16"/>
    </vehicle>
    <vehicle id="132" depart="52.80">
        <route edges="15:14 14:2 2:1 1:0 0:4 4:6"/>
    </vehicle>
    <vehicle id="134" depart="53.60">
        <route edges="7:5 5:3 3:2 2:1 1:12 12:13"/>
    </vehicle>
    <vehicle id="136" depart="54.40">
        <route edges="1:12"/>
    </vehicle>
    <vehicle id="138" depart="55.20">
        <route edges="19:18 18:3 3:2 2:14"/>
    </vehicle>
    <vehicle id="139" depart="55.60">
        <route edges="19:18 18:3 3:2 2:1 1:12 12:13"/>
    </vehicle>
    <vehicle id="141" depart="56.40">
        <route edges="0:10 10:11"/>
    </vehicle>
    <vehicle id="144" depart="57.60">
        <route edges="0:4"/>
    </vehicle>
    <vehicle id="147" depart="58.80">
        <route edges="19:18 18:3 3:2 2:1 1:12"/>
    </vehicle>
    <vehicle id="148" depart="59.20">
        <route edges="6:4 4:0 0:1 1:2 2:3 3:5 5:7"/>
    </vehicle>
    <vehicle id="151" depart="60.40">
        <route edges="19:18 18:3 3:5 5:7"/>
    </vehicle>
    <vehicle id="152" depart="60.80">
        <route edges="9:8 8:0 0:1 1:2 2:14 14:15"/>
    </vehicle>
    <vehicle id="154" depart="61.60">
        <route edges="18:3 3:2 2:14 14:15"/>
    </vehicle>
    <vehicle id="157" depart="62.80">
        <route edges="14:2 2:3 3:16 16:17"/>
    </vehicle>
    <vehicle id="158" depart="63.20">
        <route edges="6:4 4:0 0:1 1:2 2:3 3:18"/>
    </vehicle>
    <vehicle id="161" depart="64.40">
        <route edges="15:14 14:2 2:1 1:0 0:4"/>
    </vehicle>
    <vehicle id="164" depart="65.60">
        <route edges="1:0"/>
    </vehicle>
    <vehicle id="166" depart="66.40">
        <route edges="1:0 0:4 4:6"/>
    </vehicle>
    <vehicle id="167" depart="66.80">
        <route edges="3:2 2:1 1:0 0:10 10:11"/>
    </vehicle>
    <vehicle id="170" depart="68.00">
        <route edges="12:1 1:2 2:3 3:5 5:7"/>
    </vehicle>
    <vehicle id="172" depart="68.80">
        <route edges="6:4 4:0 0:1 1:2 2:14 14:15"/>
    </vehicle>
    <vehicle id="174" depart="69.60">
        <route edges="0:1 1:2 2:14"/>
    </vehicle>
    <vehicle id="175" depart="70.00">
        <route edges="11:10 10:0 0:4 4:6"/>
    </vehicle>
    <vehicle id="176" depart="70.40">
        <route edges="3:2 2:14 14:15"/>
    </vehicle>
    <vehicle id="177" depart="70.80">
        <route edges="9:8 8:0 0:1"/>
    </vehicle>
    <vehicle id="178" depart="71.20">
        <route edges="11:10 10:0 0:1 1:2 2:3"/>
    </vehicle>
    <vehicle id="181" depart="72.40">
        <route edges="19:18 18:3 3:5 5:7"/>
    </vehicle>
    <vehicle id="183" depart="73.20">
        <route edges="15:14 14:2 2:3 3:16 16:17"/>
    </vehicle>
    <vehicle id="185" depart="74.00">
        <route edges="18:3 3:5 5:7"/>
    </vehicle>
    <vehicle id="186" depart="74.40">
        <route edges="11:10 10:0 0:8 8:9"/>
    </vehicle>
    <vehicle id="187" depart="74.80">
        <route edges="5:3"/>
    </vehicle>
    <vehicle id="191" depart="76.40">
        <route edges="6:4 4:0 0:1 1:2 2:14"/>
    </vehicle>
    <vehicle id="192" depart="76.80">
        <route edges="3:5"/>
    </vehicle>
    <vehicle id="193" depart="77.20">
        <route edges="17:16 16:3 3:2 2:1 1:0 0:4 4:6"/>
    </vehicle>
    <vehicle id="194" depart="77.60">
        <route edges="5:3 3:2 2:1 1:0 0:10 10:11"/>
    </vehicle>
    <vehicle id="196" depart="78.40">
        <route edges="0:1 1:12 12:13"/>
    </vehicle>
    <vehicle id="200" depart="80.00">
        <route edges="0:1 1:2 2:3 3:18 18:19"/>
    </vehicle>
    <vehicle id="201" depart="80.40">
        <route edges="15:14 14:2 2:1 1:12 12:13"/>
    </vehicle>
    <vehicle id="203" depart="81.20">
        <route edges="7:5 5:3 3:2 2:1 1:0 0:4"/>
    </vehicle>
    <vehicle id="207" depart="82.80">
        <route edges="1:2 2:3 3:5 5:7"/>
    </vehicle>
    <vehicle id="208" depart="83.20">
        <route edges="18:3 3:2 2:14"/>
    </vehicle>
    <vehicle id="209" depart="83.60">
        <route edges="13:12 12:1 1:2 2:3 3:16 16:17"/>
    </vehicle>
    <vehicle id="212" depart="84.80">
        <route edges="15:14 14:2 2:3 3:5"/>
    </vehicle>
    <vehicle id="214" depart="85.60">
        <route edges="15:14 14:2 2:1 1:0 0:8 8:9"/>
    </vehicle>
    <vehicle id="215" depart="86.00">
        <route edges="19:18 18:3 3:2 2:1 1:0 0:8"/>
    </vehicle>
    <vehicle id="216" depart="86.40">
        <route edges="15:14 14:2 2:3 3:5 5:7"/>
    </vehicle>
    <vehicle id="217" depart="86.80">
        <route edges="6:4 4:0 0:10 10:11"/>
    </vehicle>
    <vehicle id="218" depart="87.20">
        <route edges="3:2 2:1 1:12 12:13"/>
    </vehicle>
    <vehicle id="220" depart="88.00">
        <route edges="17:16 16:3 3:5"/>
    </vehicle>
    <vehicle id="222" depart="88.80">
        <route edges="3:2 2:1 1:0 0:8"/>
    </vehicle>
    <vehicle id="224" depart="89.60">
        <route edges="14:2 2:3 3:16 16:17"/>
    </vehicle>
    <vehicle id="226" depart="90.40">
        <route edges="7:5 5:3 3:2 2:1 1:0 0:4 4:6"/>
    </vehicle>
    <vehicle id="227" depart="90.80">
        <route edges="19:18 18:3 3:2 2:1 1:0 0:10 10:11"/>
    </vehicle>
    <vehicle id="229" depart="91.60">
        <route edges="19:18 18:3 3:2 2:1 1:0 0:10 10:11"/>
    </vehicle>
    <vehicle id="231" depart="92.40">
        <route edges="19:18 18:3 3:5"/>
    </vehicle>
    <vehicle id="232" depart="92.80">
        <route edges="4:0"/>
    </vehicle>
    <vehicle id="233" depart="93.20">
        <route edges="2:3 3:16"/>
    </vehicle>
    <vehicle id="234" depart="93.60">
        <route edges="7:5 5:3 3:2 2:1 1:0"/>
    </vehicle>
    <vehicle id="235" depart="94.00">
        <route edges="16:3 3:2 2:1 1:12 12:13"/>
    </vehicle>
    <vehicle id="237" depart="94.80">
        <route edges="4:0 0:1 1:2 2:3 3:5 5:7"/>
    </vehicle>
    <vehicle id="238" depart="95.20">
        <route edges="0:1 1:12 12:13"/>
    </vehicle>
    <vehicle id="243" depart="97.20">
        <route edges="18:3 3:5 5:7"/>
    </vehicle>
    <vehicle id="245" depart="98.00">
        <route edges="9:8 8:0 0:1 1:2 2:14"/>
    </vehicle>
    <vehicle id="248" depart="99.20">
        <route edges="9:8 8:0"/>
    </vehicle>
    <vehicle id="250" depart="100.00">
        <route edges="7:5 5:3"/>
    </vehicle>
    <vehicle id="251" depart="100.40">
        <route edges="5:3 3:2 2:1 1:0"/>
    </vehicle>
    <vehicle id="255" depart="102.00">
        <route edges="4:0 0:1 1:2 2:14 14:15"/>
    </vehicle>
    <vehicle id="256" depart="102.40">
        <route edges="7:5 5:3 3:2 2:1 1:0 0:4 4:6"/>
    </vehicle>
    <vehicle id="259" depart="103.60">
        <route edges="7:5 5:3 3:2 2:1 1:0 0:4 4:6"/>
    </vehicle>
    <vehicle id="263" depart="105.20">
        <route edges="6:4 4:0 0:1 1:2 2:3 3:18 18:19"/>
    </vehicle>
    <vehicle id="264" depart="105.60">
        <route edges="6:4 4:0"/>
    </vehicle>
    <vehicle id="268" depart="107.20">
        <route edges="6:4 4:0 0:1 1:2 2:14"/>
    </vehicle>
    <vehicle id="269" depart="107.60">
        <route edges="17:16 16:3 3:2 2:1"/>
    </vehicle>
    <vehicle id="273" depart="109.20">
        <route edges="8:0 0:1 1:2 2:3 3:5 5:7"/>
    </vehicle>
    <vehicle id="275" depart="110.00">
        <route edges="7:5 5:3 3:18"/>
    </vehicle>
    <vehicle id="277" depart="110.80">
        <route edges="0:4 4:6"/>
    </vehicle>
    <vehicle id="279" depart="111.60">
        <route edges="3:5"/>
    </vehicle>
    <vehicle id="280" depart="112.00">
        <route edges="7:5 5:3 3:16 16:17"/>
    </vehicle>
    <vehicle id="282" depart="112.80">
        <route edges="12:1 1:0 0:4"/>
    </vehicle>
    <vehicle id="283" depart="113.20">
        <route edges="13:12 12:1 1:2 2:3"/>
    </vehicle>
    <vehicle id="286" depart="114.40">
        <route edges="16:3 3:2 2:1 1:0 0:8"/>
    </vehicle>
    <vehicle id="287" depart="114.80">
        <route edges="1:2 2:3 3:5"/>
    </vehicle>
    <vehicle id="289" depart="115.60">
        <route edges="7:5 5:3 3:2 2:1"/>
    </vehicle>
    <vehicle id="290" depart="116.00">
        <route edges="5:3 3:2 2:1 1:12 12:13"/>
    </vehicle>
    <vehicle id="292" depart="116.80">
        <route edges="12:1 1:2 2:14"/>
    </vehicle>
    <vehicle id="294" depart="117.60">
        <route edges="13:12 12:1 1:0 0:10 10:11"/>
    </vehicle>
    <vehicle id="295" depart="118.00">
        <route edges="7:5 5:3 3:2 2:1 1:0 0:4 4:6"/>
    </vehicle>
    <vehicle id="297" depart="118.80">
        <route edges="6:4 4:0 0:10 10:11"/>
    </vehicle>
    <vehicle id="298" depart="119.20">
        <route edges="11:10 10:0 0:1 1:2 2:3 3:16 16:17"/>
    </vehicle>
    <vehicle id="299" depart="119.60">
        <route edges="0:1 1:12 12:13"/>
    </vehicle>
    <vehicle id="300" depart="120.00">
        <route edges="6:4 4:0 0:1 1:12"/>
    </vehicle>
    <vehicle id="301" depart="120.40">
        <route edges="9:8 8:0"/>
    </vehicle>
    <vehicle id="302" depart="120.80">
        <route edges="3:5"/>
    </vehicle>
    <vehicle id="303" depart="121.20">
        <route edges="8:0 0:1 1:2 2:3 3:16 16:17"/>
    </vehicle>
    <vehicle id="304" depart="121.60">
        <route edges="7:5 5:3 3:18 18:19"/>
    </vehicle>
    <vehicle id="305" depart="122.00">
        <route edges="7:5 5:3 3:2 2:1 1:0 0:4"/>
    </vehicle>
    <vehicle id="306" depart="122.40">
        <route edges="2:1 1:0 0:4 4:6"/>
    </vehicle>
    <vehicle id="307" depart="122.80">
        <route edges="17:16 16:3 3:2 2:14 14:15"/>
    </vehicle>
    <vehicle id="310" depart="124.00">
        <route edges="15:14 14:2 2:3 3:5 5:7"/>
    </vehicle>
    <vehicle id="311" depart="124.40">
        <route edges="7:5 5:3 3:16"/>
    </vehicle>
    <vehicle id="312" depart="124.80">
        <route edges="7:5 5:3 3:2 2:1"/>
    </vehicle>
    <vehicle id="313" depart="125.20">
        <route edges="6:4 4:0 0:8"/>
    </vehicle>
    <vehicle id="314" depart="125.60">
        <route edges="15:14 14:2 2:1 1:0 0:8 8:9"/>
    </vehicle>
    <vehicle id="315" depart="126.00">
        <route edges="7:5 5:3 3:2 2:1 1:0 0:10 10:11"/>
    </vehicle>
    <vehicle id="316" depart="126.40">
        <route edges="18:3 3:2 2:1"/>
    </vehicle>
    <vehicle id="317" depart="126.80">
        <route edges="3:2 2:1 1:0"/>
    </vehicle>
    <vehicle id="319" depart="127.60">
        <route edges="7:5 5:3 3:2 2:14 14:15"/>
    </vehicle>
    <vehicle id="320" depart="128.00">
        <route edges="3:2 2:1 1:0 0:4 4:6"/>
    </vehicle>
    <vehicle id="322" depart="128.80">
        <route edges="9:8 8:0 0:1 1:2 2:14 14:15"/>
    </vehicle>
    <vehicle id="324" depart="129.60">
        <route edges="19:18 18:3 3:2"/>
    </vehicle>
    <vehicle id="325" depart="130.00">
        <route edges="7:5 5:3 3:16"/>
    </vehicle>
    <vehicle id="326" depart="130.40">
        <route edges="15:14 14:2 2:3 3:16 16:17"/>
    </vehicle>
    <vehicle id="328" depart="131.20">
        <route edges="0:1 1:2 2:14 14:15"/>
    </vehicle>
    <vehicle id="329" depart="131.60">
        <route edges="6:4 4:0 0:1 1:2 2:3 3:16 16:17"/>
    </vehicle>
    <vehicle id="331" depart="132.40">
        <route edges="2:1 1:0 0:4 4:6"/>
    </vehicle>
    <vehicle id="332" depart="132.80">
        <route edges="11:10 10:0 0:1 1:2"/>
    </vehicle>
    <vehicle id="334" depart="133.60">
        <route edges="17:16 16:3 3:2 2:1 1:0 0:4 4:6"/>
    </vehicle>
    <vehicle id="335" depart="134.00">
        <route edges="8:0 0:1"/>
    </vehicle>
    <vehicle id="339" depart="135.60">
        <route edges="6:4 4:0 0:1 1:12 12:13"/>
    </vehicle>
    <vehicle id="341" depart="136.40">
        <route edges="5:3 3:2 2:1 1:0 0:4 4:6"/>
    </vehicle>
    <vehicle id="347" depart="138.80">
        <route edges="4:0 0:1 1:2 2:14"/>
    </vehicle>
    <vehicle id="348" depart="139.20">
        <route edges="11:10 10:0 0:1 1:12 12:13"/>
    </vehicle>
    <vehicle id="351" depart="140.40">
        <route edges="6:4 4:0 0:10 10:11"/>
    </vehicle>
    <vehicle id="353" depart="141.20">
        <route edges="13:12 12:1 1:2 2:3 3:5 5:7"/>
    </vehicle>
    <vehicle id="359" depart="143.60">
        <route edges="19:18 18:3"/>
    </vehicle>
    <vehicle id="360" depart="144.00">
        <route edges="6:4 4:0 0:1 1:2 2:3 3:5 5:7"/>
    </vehicle>
    <vehicle id="361" depart="144.40">
        <route edges="7:5 5:3 3:18 18:19"/>
    </vehicle>
    <vehicle id="362" depart="144.80">
        <route edges="2:3 3:18 18:19"/>
    </vehicle>
    <vehicle id="365" depart="146.00">
        <route edges="19:18 18:3 3:2 2:1 1:0 0:4"/>
    </vehicle>
    <vehicle id="366" depart="146.40">
        <route edges="18:3 3:5 5:7"/>
    </vehicle>
    <vehicle id="367" depart="146.80">
        <route edges="15:14 14:2 2:1 1:12 12:13"/>
    </vehicle>
    <vehicle id="368" depart="147.20">
        <route edges="19:18 18:3 3:2 2:1 1:0 0:8 8:9"/>
    </vehicle>
    <vehicle id="370" depart="148.00">
        <route edges="6:4 4:0 0:1 1:2 2:14 14:15"/>
    </vehicle>
    <vehicle id="377" depart="150.80">
        <route edges="9:8 8:0 0:4 4:6"/>
    </vehicle>
    <vehicle id="379" depart="151.60">
        <route edges="6:4 4:0 0:1 1:2 2:3 3:18 18:19"/>
    </vehicle>
    <vehicle id="381" depart="152.40">
        <route edges="17:16 16:3 3:5 5:7"/>
    </vehicle>
    <vehicle id="388" depart="155.20">
        <route edges="15:14 14:2 2:1 1:0 0:10"/>
    </vehicle>
    <vehicle id="393" depart="157.20">
        <route edges="15:14 14:2 2:1 1:12 12:13"/>
    </vehicle>
    <vehicle id="395" depart="158.00">
        <route edges="19:18 18:3 3:2"/>
    </vehicle>
    <vehicle id="397" depart="158.80">
        <route edges="15:14 14:2 2:1 1:0 0:10 10:11"/>
    </vehicle>
    <vehicle id="398" depart="159.20">
        <route edges="7:5 5:3 3:2 2:1"/>
    </vehicle>
    <vehicle id="399" depart="159.60">
        <route edges="7:5 5:3 3:2 2:1 1:12"/>
    </vehicle>
    <vehicle id="400" depart="160.00">
        <route edges="6:4 4:0 0:8 8:9"/>
    </vehicle>
    <vehicle id="402" depart="160.80">
        <route edges="5:3 3:2 2:1 1:0 0:4 4:6"/>
    </vehicle>
    <vehicle id="403" depart="161.20">
        <route edges="4:0 0:1 1:2 2:3 3:5"/>
    </vehicle>
    <vehicle id="405" depart="162.00">
        <route edges="7:5 5:3 3:2 2:1 1:0 0:10 10:11"/>
    </vehicle>
    <vehicle id="411" depart="164.40">
        <route edges="2:1"/>
    </vehicle>
    <vehicle id="412" depart="164.80">
        <route edges="3:2 2:1 1:0 0:4 4:6"/>
    </vehicle>
    <vehicle id="413" depart="165.20">
        <route edges="15:14 14:2"/>
    </vehicle>
    <vehicle id="415" depart="166.00">
        <route edges="8:0 0:1 1:2 2:14 14:15"/>
    </vehicle>
    <vehicle id="416" depart="166.40">
        <route edges="14:2 2:1 1:0 0:4 4:6"/>
    </vehicle>
    <vehicle id="417" depart="166.80">
        <route edges="0:4 4:6"/>
    </vehicle>
    <vehicle id="420" depart="168.00">
        <route edges="15:14 14:2 2:3 3:18 18:19"/>
    </vehicle>
    <vehicle id="421" depart="168.40">
        <route edges="19:18 18:3 3:2 2:1 1:0"/>
    </vehicle>
    <vehicle id="422" depart="168.80">
        <route edges="13:12 12:1 1:2 2:3 3:16 16:17"/>
    </vehicle>
    <vehicle id="425" depart="170.00">
        <route edges="18:3 3:5 5:7"/>
    </vehicle>
    <vehicle id="426" depart="170.40">
        <route edges="9:8 8:0 0:1 1:2 2:3 3:5 5:7"/>
    </vehicle>
    <vehicle id="428" depart="171.20">
        <route edges="17:16 16:3 3:5 5:7"/>
    </vehicle>
    <vehicle id="430" depart="172.00">
        <route edges="5:3 3:2 2:1 1:0 0:4 4:6"/>
    </vehicle>
    <vehicle id="431" depart="172.40">
        <route edges="2:1 1:0 0:10 10:11"/>
    </vehicle>
    <vehicle id="432" depart="172.80">
        <route edges="9:8 8:0 0:4 4:6"/>
    </vehicle>
    <vehicle id="433" depart="173.20">
        <route edges="2:3 3:5 5:7"/>
    </vehicle>
    <vehicle id="434" depart="173.60">
        <route edges="1:0 0:4 4:6"/>
    </vehicle>
    <vehicle id="437" depart="174.80">
        <route edges="17:16 16:3 3:2 2:1 1:0 0:4 4:6"/>
    </vehicle>
    <vehicle id="438" depart="175.20">
        <route edges="16:3"/>
    </vehicle>
    <vehicle id="439" depart="175.60">
        <route edges="19:18 18:3 3:2 2:14"/>
    </vehicle>
    <vehicle id="441" depart="176.40">
        <route edges="6:4 4:0 0:1 1:2 2:3 3:16"/>
    </vehicle>
    <vehicle id="442" depart="176.80">
        <route edges="14:2 2:3 3:16"/>
    </vehicle>
    <vehicle id="443" depart="177.20">
        <route edges="11:10 10:0 0:1 1:2"/>
    </vehicle>
    <vehicle id="445" depart="178.00">
        <route edges="15:14 14:2 2:1 1:0 0:10 10:11"/>
    </vehicle>
    <vehicle id="447" depart="178.80">
        <route edges="3:2 2:1"/>
    </vehicle>
    <vehicle id="449" depart="179.60">
        <route edges="18:3 3:5 5:7"/>
    </vehicle>
    <vehicle id="451" depart="180.40">
        <route edges="7:5 5:3 3:2 2:1 1:0"/>
    </vehicle>
    <vehicle id="452" depart="180.80">
        <route edges="14:2 2:3 3:18"/>
    </vehicle>
    <vehicle id="454" depart="181.60">
        <route edges="17:16 16:3 3:2 2:1 1:0 0:4 4:6"/>
    </vehicle>
    <vehicle id="455" depart="182.00">
        <route edges="6:4 4:0 0:1 1:2 2:14 14:15"/>
    </vehicle>
    <vehicle id="458" depart="183.20">
        <route edges="18:3 3:2 2:1 1:12"/>
    </vehicle>
    <vehicle id="460" depart="184.00">
        <route edges="6:4 4:0 0:1 1:2 2:3 3:5 5:7"/>
    </vehicle>
    <vehicle id="462" depart="184.80">
        <route edges="6:4 4:0 0:1 1:12 12:13"/>
    </vehicle>
    <vehicle id="463" depart="185.20">
        <route edges="16:3 3:2"/>
    </vehicle>
    <vehicle id="465" depart="186.00">
        <route edges="11:10 10:0 0:4"/>
    </vehicle>
    <vehicle id="466" depart="186.40">
        <route edges="6:4 4:0 0:1 1:12"/>
    </vehicle>
    <vehicle id="467" depart="186.80">
        <route edges="4:0 0:1 1:2 2:3 3:5"/>
    </vehicle>
    <vehicle id="468" depart="187.20">
        <route edges="0:1 1:2 2:3 3:16 16:17"/>
    </vehicle>
    <vehicle id="469" depart="187.60">
        <route edges="6:4 4:0 0:1 1:2 2:3 3:18 18:19"/>
    </vehicle>
    <vehicle id="470" depart="188.00">
        <route edges="15:14 14:2 2:3 3:5"/>
    </vehicle>
    <vehicle id="471" depart="188.40">
        <route edges="1:2 2:14"/>
    </vehicle>
    <vehicle id="474" depart="189.60">
        <route edges="2:3"/>
    </vehicle>
    <vehicle id="475" depart="190.00">
        <route edges="14:2 2:1 1:0 0:8 8:9"/>
    </vehicle>
    <vehicle id="477" depart="190.80">
        <route edges="7:5 5:3 3:2 2:1 1:0 0:4 4:6"/>
    </vehicle>
    <vehicle id="479" depart="191.60">
        <route edges="7:5 5:3 3:2 2:1 1:0"/>
    </vehicle>
    <vehicle id="480" depart="192.00">
        <route edges="2:1 1:0 0:4 4:6"/>
    </vehicle>
    <vehicle id="481" depart="192.40">
        <route edges="13:12 12:1 1:2 2:3"/>
    </vehicle>
    <vehicle id="482" depart="192.80">
        <route edges="10:0 0:1 1:2 2:3 3:18 18:19"/>
    </vehicle>
    <vehicle id="483" depart="193.20">
        <route edges="17:16 16:3 3:2 2:1 1:0 0:4"/>
    </vehicle>
    <vehicle id="485" depart="194.00">
        <route edges="5:3 3:2 2:14"/>
    </vehicle>
    <vehicle id="487" depart="194.80">
        <route edges="16:3 3:18 18:19"/>
    </vehicle>
    <vehicle id="488" depart="195.20">
        <route edges="6:4 4:0 0:8 8:9"/>
    </vehicle>
    <vehicle id="492" depart="196.80">
        <route edges="12:1 1:0 0:10 10:11"/>
    </vehicle>
    <vehicle id="494" depart="197.60">
        <route edges="0:1"/>
    </vehicle>
    <vehicle id="497" depart="198.80">
        <route edges="19:18 18:3 3:2"/>
    </vehicle>
    <vehicle id="498" depart="199.20">
        <route edges="15:14 14:2 2:3 3:18 18:19"/>
    </vehicle>
    <vehicle id="499" depart="199.60">
        <route edges="7:5 5:3 3:16 16:17"/>
    </vehicle>
    <vehicle id="500" depart="200.00">
        <route edges="5:3"/>
    </vehicle>
    <vehicle id="502" depart="200.80">
        <route edges="2:3 3:5 5:7"/>
    </vehicle>
    <vehicle id="504" depart="201.60">
        <route edges="12:1 1:2 2:3"/>
    </vehicle>
    <vehicle id="505" depart="202.00">
        <route edges="4:0 0:1 1:2 2:3 3:18 18:19"/>
    </vehicle>
    <vehicle id="508" depart="203.20">
        <route edges="6:4 4:0 0:1 1:2 2:3 3:18 18:19"/>
    </vehicle>
    <vehicle id="510" depart="204.00">
        <route edges="19:18 18:3 3:2 2:1 1:0 0:10 10:11"/>
    </vehicle>
    <vehicle id="511" depart="204.40">
        <route edges="6:4 4:0 0:1 1:12"/>
    </vehicle>
    <vehicle id="512" depart="204.80">
        <route edges="15:14 14:2 2:1 1:0 0:8 8:9"/>
    </vehicle>
    <vehicle id="513" depart="205.20">
        <route edges="3:2 2:1 1:0 0:4 4:6"/>
    </vehicle>
    <vehicle id="514" depart="205.60">
        <route edges="0:1 1:2 2:14 14:15"/>
    </vehicle>
    <vehicle id="516" depart="206.40">
        <route edges="6:4 4:0 0:1 1:2 2:3 3:18"/>
    </vehicle>
    <vehicle id="517" depart="206.80">
        <route edges="12:1 1:2 2:3 3:16 16:17"/>
    </vehicle>
    <vehicle id="518" depart="207.20">
        <route edges="6:4 4:0 0:1 1:2 2:3"/>
    </vehicle>
    <vehicle id="519" depart="207.60">
        <route edges="10:0 0:4 4:6"/>
    </vehicle>
    <vehicle id="520" depart="208.00">
        <route edges="15:14 14:2"/>
    </vehicle>
    <vehicle id="523" depart="209.20">
        <route edges="4:0 0:1 1:2 2:3 3:18"/>
    </vehicle>
    <vehicle id="525" depart="210.00">
        <route edges="15:14 14:2 2:1 1:0 0:4 4:6"/>
    </vehicle>
    <vehicle id="526" depart="210.40">
        <route edges="10:0 0:1 1:2 2:3 3:16 16:17"/>
    </vehicle>
    <vehicle id="527" depart="210.80">
        <route edges="6:4 4:0 0:1 1:2 2:3"/>
    </vehicle>
    <vehicle id="528" depart="211.20">
        <route edges="6:4 4:0 0:10 10:11"/>
    </vehicle>
    <vehicle id="529" depart="211.60">