<?xml version="1.0" encoding="UTF-8"?>

<!-- generated on Thu Oct 23 22:34:51 2014 by SUMO duarouter Version 0.18.0
<?xml version="1.0" encoding="UTF-8"?>

<configuration xmlns:xsi="http://www.w3.org/2001/XMLSchema-instance" xsi:noNamespaceSchemaLocation="http://sumo.sf.net/xsd/duarouterConfiguration.xsd">

    <input>
        <net-file value="corridor.net.xml"/>
        <trip-files value="experimentos/corridor.p1.0.7.trips.xml"/>
    </input>

    <output>
        <output-file value="experimentos/corridor.p1.0.7.rou.xml"/>
    </output>

    <processing>
        <ignore-errors value="true"/>
    </processing>

    <random_number>
        <random value="true"/>
    </random_number>

</configuration>
-->

<routes xmlns:xsi="http://www.w3.org/2001/XMLSchema-instance" xsi:noNamespaceSchemaLocation="http://sumo.sf.net/xsd/routes_file.xsd">
    <vehicle id="0" depart="0.00">
        <route edges="17:16 16:3 3:2 2:14 14:15"/>
    </vehicle>
    <vehicle id="2" depart="2.00">
        <route edges="19:18 18:3 3:2 2:1 1:0 0:4 4:6"/>
    </vehicle>
    <vehicle id="4" depart="4.00">
        <route edges="0:1 1:2 2:3 3:18 18:19"/>
    </vehicle>
    <vehicle id="5" depart="5.00">
        <route edges="13:12 12:1 1:2 2:14 14:15"/>
    </vehicle>
    <vehicle id="7" depart="7.00">
        <route edges="14:2 2:3"/>
    </vehicle>
    <vehicle id="8" depart="8.00">
        <route edges="7:5 5:3 3:2"/>
    </vehicle>
    <vehicle id="12" depart="12.00">
        <route edges="7:5 5:3 3:18"/>
    </vehicle>
    <vehicle id="13" depart="13.00">
        <route edges="8:0 0:1 1:12 12:13"/>
    </vehicle>
    <vehicle id="20" depart="20.00">
        <route edges="7:5 5:3 3:2 2:1 1:12 12:13"/>
    </vehicle>
    <vehicle id="21" depart="21.00">
        <route edges="15:14 14:2 2:1"/>
    </vehicle>
    <vehicle id="23" depart="23.00">
        <route edges="15:14 14:2 2:1 1:0 0:4 4:6"/>
    </vehicle>
    <vehicle id="24" depart="24.00">
        <route edges="6:4 4:0 0:1 1:2 2:3 3:18 18:19"/>
    </vehicle>
    <vehicle id="26" depart="26.00">
        <route edges="11:10 10:0 0:4"/>
    </vehicle>
    <vehicle id="31" depart="31.00">
        <route edges="9:8 8:0 0:1 1:2 2:3 3:16 16:17"/>
    </vehicle>
    <vehicle id="37" depart="37.00">
        <route edges="17:16 16:3 3:2 2:1 1:12 12:13"/>
    </vehicle>
    <vehicle id="41" depart="41.00">
        <route edges="7:5 5:3 3:18 18:19"/>
    </vehicle>
    <vehicle id="47" depart="47.00">
        <route edges="13:12 12:1 1:2 2:3 3:5 5:7"/>
    </vehicle>
    <vehicle id="52" depart="52.00">
        <route edges="18:3 3:2 2:1 1:0 0:4"/>
    </vehicle>
    <vehicle id="54" depart="54.00">
        <route edges="7:5 5:3 3:2 2:1 1:0 0:4 4:6"/>
    </vehicle>
    <vehicle id="56" depart="56.00">
        <route edges="5:3 3:2 2:1 1:0"/>
    </vehicle>
    <vehicle id="57" depart="57.00">
        <route edges="13:12 12:1 1:2 2:3 3:5 5:7"/>
    </vehicle>
    <vehicle id="62" depart="62.00">
        <route edges="11:10 10:0"/>
    </vehicle>
    <vehicle id="63" depart="63.00">
        <route edges="3:5 5:7"/>
    </vehicle>
    <vehicle id="64" depart="64.00">
        <route edges="16:3 3:2 2:1 1:0 0:4 4:6"/>
    </vehicle>
    <vehicle id="66" depart="66.00">
        <route edges="6:4 4:0 0:8 8:9"/>
    </vehicle>
    <vehicle id="67" depart="67.00">
        <route edges="5:3 3:2 2:1 1:0 0:4 4:6"/>
    </vehicle>
    <vehicle id="69" depart="69.00">
        <route edges="6:4 4:0 0:1 1:2 2:3 3:18 18:19"/>
    </vehicle>
    <vehicle id="73" depart="73.00">
        <route edges="7:5 5:3 3:2"/>
    </vehicle>
    <vehicle id="76" depart="76.00">
        <route edges="6:4 4:0 0:8 8:9"/>
    </vehicle>
    <vehicle id="81" depart="81.00">
        <route edges="6:4 4:0 0:1 1:2 2:3 3:16 16:17"/>
    </vehicle>
    <vehicle id="83" depart="83.00">
        <route edges="10:0 0:1 1:2 2:3 3:16"/>
    </vehicle>
    <vehicle id="85" depart="85.00">
        <route edges="6:4 4:0 0:8 8:9"/>
    </vehicle>
    <vehicle id="88" depart="88.00">
        <route edges="11:10 10:0 0:1"/>
    </vehicle>
    <vehicle id="91" depart="91.00">
        <route edges="9:8 8:0 0:1 1:12 12:13"/>
    </vehicle>
    <vehicle id="94" depart="94.00">
        <route edges="11:10 10:0 0:1 1:2 2:3 3:18 18:19"/>
    </vehicle>
    <vehicle id="95" depart="95.00">
        <route edges="6:4 4:0 0:1 1:2 2:3 3:16 16:17"/>
    </vehicle>
    <vehicle id="97" depart="97.00">
        <route edges="6:4 4:0 0:1 1:2 2:3 3:5 5:7"/>
    </vehicle>
    <vehicle id="100" depart="100.00">
        <route edges="7:5 5:3 3:2 2:1 1:0 0:8 8:9"/>
    </vehicle>
    <vehicle id="103" depart="103.00">
        <route edges="2:1 1:0 0:8"/>
    </vehicle>
    <vehicle id="106" depart="106.00">
        <route edges="3:2 2:14 14:15"/>
    </vehicle>
    <vehicle id="107" depart="107.00">
        <route edges="7:5 5:3 3:2 2:1 1:0 0:4"/>
    </vehicle>
    <vehicle id="112" depart="112.00">
        <route edges="18:3 3:2 2:1 1:12 12:13"/>
    </vehicle>
    <vehicle id="113" depart="113.00">
        <route edges="17:16 16:3 3:2 2:1"/>
    </vehicle>
    <vehicle id="114" depart="114.00">
        <route edges="18:3 3:2 2:14 14:15"/>
    </vehicle>
    <vehicle id="115" depart="115.00">
        <route edges="11:10 10:0 0:1 1:12 12:13"/>
    </vehicle>
    <vehicle id="116" depart="116.00">
        <route edges="4:0 0:1 1:2 2:3 3:18 18:19"/>
    </vehicle>
    <vehicle id="117" depart="117.00">
        <route edges="5:3 3:2 2:14 14:15"/>
    </vehicle>
    <vehicle id="118" depart="118.00">
        <route edges="13:12 12:1"/>
    </vehicle>
    <vehicle id="119" depart="119.00">
        <route edges="6:4 4:0 0:1 1:2"/>
    </vehicle>
    <vehicle id="121" depart="121.00">
        <route edges="6:4 4:0"/>
    </vehicle>
    <vehicle id="122" depart="122.00">
        <route edges="11:10 10:0 0:1 1:2 2:3"/>
    </vehicle>
    <vehicle id="123" depart="123.00">
        <route edges="17:16 16:3 3:18 18:19"/>
    </vehicle>
    <vehicle id="124" depart="124.00">
        <route edges="7:5 5:3"/>
    </vehicle>
    <vehicle id="126" depart="126.00">
        <route edges="7:5 5:3 3:2 2:1 1:0 0:4 4:6"/>
    </vehicle>
    <vehicle id="130" depart="130.00">
        <route edges="17:16 16:3 3:2 2:1 1:0 0:10"/>
    </vehicle>
    <vehicle id="132" depart="132.00">
        <route edges="9:8 8:0 0:1 1:2 2:3 3:5 5:7"/>
    </vehicle>
    <vehicle id="133" depart="133.00">
        <route edges="5:3 3:2 2:1 1:0 0:4"/>
    </vehicle>
    <vehicle id="137" depart="137.00">
        <route edges="13:12 12:1 1:2 2:3"/>
    </vehicle>
    <vehicle id="138" depart="138.00">
        <route edges="15:14 14:2 2:1 1:0 0:4 4:6"/>
    </vehicle>
    <vehicle id="142" depart="142.00">
        <route edges="6:4 4:0 0:1 1:12 12:13"/>
    </vehicle>
    <vehicle id="144" depart="144.00">
        <route edges="19:18 18:3 3:2 2:1 1:0 0:8 8:9"/>
    </vehicle>
    <vehicle id="146" depart="146.00">
        <route edges="19:18 18:3 3:5 5:7"/>
    </vehicle>
    <vehicle id="147" depart="147.00">
        <route edges="0:8"/>
    </vehicle>
    <vehicle id="148" depart="148.00">
        <route edges="7:5 5:3 3:2 2:1 1:0 0:8"/>
    </vehicle>
    <vehicle id="150" depart="150.00">
        <route edges="16:3"/>
    </vehicle>
    <vehicle id="151" depart="151.00">
        <route edges="6:4 4:0 0:1 1:2 2:14 14:15"/>
    </vehicle>
    <vehicle id="156" depart="156.00">
        <route edges="6:4 4:0 0:1 1:2 2:3 3:16 16:17"/>
    </vehicle>
    <vehicle id="157" depart="157.00">
        <route edges="15:14 14:2 2:3 3:5 5:7"/>
    </vehicle>
    <vehicle id="159" depart="159.00">
        <route edges="11:10 10:0 0:1 1:2 2:14"/>
    </vehicle>
    <vehicle id="163" depart="163.00">
        <route edges="13:12 12:1"/>
    </vehicle>
    <vehicle id="166" depart="166.00">
        <route edges="13:12 12:1 1:2 2:14 14:15"/>
    </vehicle>
    <vehicle id="167" depart="167.00">
        <route edges="17:16 16:3 3:2 2:1 1:12 12:13"/>
    </vehicle>
    <vehicle id="169" depart="169.00">
        <route edges="7:5 5:3 3:2 2:1 1:0 0:4 4:6"/>
    </vehicle>
    <vehicle id="170" depart="170.00">
        <route edges="18:3 3:2 2:14 14:15"/>
    </vehicle>
    <vehicle id="173" depart="173.00">
        <route edges="10:0 0:1 1:2 2:3 3:5 5:7"/>
    </vehicle>
    <vehicle id="175" depart="175.00">
        <route edges="6:4 4:0 0:8 8:9"/>
    </vehicle>
    <vehicle id="178" depart="178.00">
        <route edges="12:1 1:2 2:3 3:5 5:7"/>
    </vehicle>
    <vehicle id="181" depart="181.00">
        <route edges="17:16 16:3 3:2 2:1 1:0 0:4 4:6"/>
    </vehicle>
    <vehicle id="182" depart="182.00">
        <route edges="1:0 0:4 4:6"/>
    </vehicle>
    <vehicle id="183" depart="183.00">
        <route edges="19:18 18:3 3:2 2:1 1:0 0:4 4:6"/>
    </vehicle>
    <vehicle id="187" depart="187.00">
        <route edges="13:12 12:1 1:2 2:3 3:5 5:7"/>
    </vehicle>
    <vehicle id="191" depart="191.00">
        <route edges="6:4 4:0 0:1 1:2 2:3 3:18 18:19"/>
    </vehicle>
    <vehicle id="194" depart="194.00">
        <route edges="15:14 14:2 2:3 3:5 5:7"/>
    </vehicle>
    <vehicle id="195" depart="195.00">
        <route edges="12:1"/>
    </vehicle>
    <vehicle id="197" depart="197.00">
        <route edges="5:3 3:2 2:14 14:15"/>
    </vehicle>
    <vehicle id="199" depart="199.00">
        <route edges="17:16 16:3 3:5 5:7"/>
    </vehicle>
    <vehicle id="200" depart="200.00">
        <route edges="6:4 4:0 0:1 1:2 2:14 14:15"/>
    </vehicle>
    <vehicle id="201" depart="201.00">
        <route edges="10:0 0:1 1:2 2:3 3:5 5:7"/>
    </vehicle>
    <vehicle id="202" depart="202.00">
        <route edges="11:10 10:0 0:4 4:6"/>
    </vehicle>
    <vehicle id="204" depart="204.00">
        <route edges="7:5 5:3"/>
    </vehicle>
    <vehicle id="207" depart="207.00">
        <route edges="18:3 3:2 2:1 1:0 0:10 10:11"/>
    </vehicle>
    <vehicle id="211" depart="211.00">
        <route edges="6:4 4:0 0:10 10:11"/>
    </vehicle>
    <vehicle id="213" depart="213.00">
        <route edges="6:4 4:0 0:1 1:2 2:3 3:5 5:7"/>
    </vehicle>
    <vehicle id="214" depart="214.00">
        <route edges="6:4 4:0"/>
    </vehicle>
    <vehicle id="215" depart="215.00">
        <route edges="13:12 12:1 1:0 0:10"/>
    </vehicle>
    <vehicle id="216" depart="216.00">
        <route edges="17:16 16:3"/>
    </vehicle>
    <vehicle id="217" depart="217.00">
        <route edges="6:4 4:0"/>
    </vehicle>
    <vehicle id="218" depart="218.00">
        <route edges="3:16 16:17"/>
    </vehicle>
    <vehicle id="219" depart="219.00">
        <route edges="19:18 18:3 3:2 2:1 1:12 12:13"/>
    </vehicle>
    <vehicle id="222" depart="222.00">
        <route edges="5:3 3:2 2:14"/>
    </vehicle>
    <vehicle id="223" depart="223.00">
        <route edges="9:8 8:0 0:4 4:6"/>
    </vehicle>
    <vehicle id="227" depart="227.00">
        <route edges="6:4 4:0 0:1 1:2 2:14 14:15"/>
    </vehicle>
    <vehicle id="228" depart="228.00">
        <route edges="0:1 1:2 2:3 3:16 16:17"/>
    </vehicle>
    <vehicle id="230" depart="230.00">
        <route edges="6:4 4:0 0:1 1:2 2:3 3:5"/>
    </vehicle>
    <vehicle id="231" depart="231.00">
        <route edges="7:5 5:3 3:2 2:1 1:0 0:4 4:6"/>
    </vehicle>
    <vehicle id="234" depart="234.00">
        <route edges="9:8 8:0 0:4 4:6"/>
    </vehicle>
    <vehicle id="236" depart="236.00">
        <route edges="14:2 2:1 1:0 0:8 8:9"/>
    </vehicle>
    <vehicle id="238" depart="238.00">
        <route edges="5:3 3:2 2:1 1:0 0:10"/>
    </vehicle>
    <vehicle id="239" depart="239.00">
        <route edges="3:2 2:1 1:0 0:8 8:9"/>
    </vehicle>
    <vehicle id="241" depart="241.00">
        <route edges="6:4 4:0 0:1 1:2 2:3 3:18 18:19"/>
    </vehicle>
    <vehicle id="245" depart="245.00">
        <route edges="5:3 3:2 2:1 1:0 0:8 8:9"/>
    </vehicle>
    <vehicle id="246" depart="246.00">
        <route edges="9:8 8:0 0:1 1:2 2:3 3:18 18:19"/>
    </vehicle>
    <vehicle id="247" depart="247.00">
        <route edges="16:3 3:5 5:7"/>
    </vehicle>
    <vehicle id="249" depart="249.00">
        <route edges="5:3 3:2 2:1 1:0 0:10 10:11"/>
    </vehicle>
    <vehicle id="250" depart="250.00">
        <route edges="15:14 14:2 2:1 1:0 0:4"/>
    </vehicle>
    <vehicle id="255" depart="255.00">
        <route edges="4:0 0:1 1:2 2:3"/>
    </vehicle>
    <vehicle id="256" depart="256.00">
        <route edges="3:18 18:19"/>
    </vehicle>
    <vehicle id="257" depart="257.00">
        <route edges="8:0 0:1 1:2 2:3"/>
    </vehicle>
    <vehicle id="259" depart="259.00">
        <route edges="5:3 3:2 2:1 1:12 12:13"/>
    </vehicle>
    <vehicle id="260" depart="260.00">
        <route edges="13:12 12:1 1:0 0:4 4:6"/>
    </vehicle>
    <vehicle id="261" depart="261.00">
        <route edges="5:3 3:2 2:14 14:15"/>
    </vehicle>
    <vehicle id="262" depart="262.00">
        <route edges="9:8 8:0 0:1 1:2 2:3 3:18 18:19"/>
    </vehicle>
    <vehicle id="263" depart="263.00">
        <route edges="9:8 8:0 0:10"/>
    </vehicle>
    <vehicle id="265" depart="265.00">
        <route edges="2:1 1:0 0:4 4:6"/>
    </vehicle>
    <vehicle id="267" depart="267.00">
        <route edges="1:2 2:3 3:18 18:19"/>
    </vehicle>
    <vehicle id="269" depart="269.00">
        <route edges="19:18 18:3 3:2 2:1 1:0 0:4 4:6"/>
    </vehicle>
    <vehicle id="273" depart="273.00">
        <route edges="11:10 10:0 0:4 4:6"/>
    </vehicle>
    <vehicle id="275" depart="275.00">
        <route edges="2:1 1:0"/>
    </vehicle>
    <vehicle id="278" depart="278.00">
        <route edges="4:0 0:10 10:11"/>
    </vehicle>
    <vehicle id="281" depart="281.00">
        <route edges="7:5 5:3 3:2 2:1 1:0 0:4 4:6"/>
    </vehicle>
    <vehicle id="283" depart="283.00">
        <route edges="15:14 14:2 2:1 1:0 0:4 4:6"/>
    </vehicle>
    <vehicle id="286" depart="286.00">
        <route edges="0:1 1:2 2:3 3:16 16:17"/>
    </vehicle>
    <vehicle id="287" depart="287.00">
        <route edges="1:2 2:14"/>
    </vehicle>
    <vehicle id="290" depart="290.00">
        <route edges="17:16 16:3 3:5 5:7"/>
    </vehicle>
    <vehicle id="295" depart="295.00">
        <route edges="13:12 12:1 1:2 2:3 3:5 5:7"/>
    </vehicle>
    <vehicle id="299" depart="299.00">
        <route edges="9:8 8:0 0:4 4:6"/>
    </vehicle>
    <vehicle id="301" depart="301.00">
        <route edges="7:5 5:3"/>
    </vehicle>
    <vehicle id="302" depart="302.00">
        <route edges="15:14 14:2 2:1 1:12"/>
    </vehicle>
    <vehicle id="304" depart="304.00">
        <route edges="6:4 4:0 0:8 8:9"/>
    </vehicle>
    <vehicle id="306" depart="306.00">
        <route edges="2:1 1:0 0:4 4:6"/>
    </vehicle>
    <vehicle id="307" depart="307.00">
        <route edges="9:8 8:0 0:10 10:11"/>
    </vehicle>
    <vehicle id="308" depart="308.00">
        <route edges="12:1 1:2 2:3 3:5 5:7"/>
    </vehicle>
    <vehicle id="309" depart="309.00">
        <route edges="4:0 0:10 10:11"/>
    </vehicle>
    <vehicle id="310" depart="310.00">
        <route edges="11:10 10:0 0:8 8:9"/>
    </vehicle>
    <vehicle id="316" depart="316.00">
        <route edges="3:2 2:1 1:0 0:8 8:9"/>
    </vehicle>
    <vehicle id="317" depart="317.00">
        <route edges="13:12 12:1 1:0 0:10 10:11"/>
    </vehicle>
    <vehicle id="318" depart="318.00">
        <route edges="15:14 14:2 2:3"/>
    </vehicle>
    <vehicle id="319" depart="319.00">
        <route edges="15:14 14:2 2:1 1:0 0:4"/>
    </vehicle>
    <vehicle id="320" depart="320.00">
        <route edges="15:14 14:2 2:3 3:5"/>
    </vehicle>
    <vehicle id="321" depart="321.00">
        <route edges="14:2 2:1 1:0 0:4 4:6"/>
    </vehicle>
    <vehicle id="322" depart="322.00">
        <route edges="2:3 3:16 16:17"/>
    </vehicle>
    <vehicle id="327" depart="327.00">
        <route edges="11:10 10:0 0:1 1:2 2:3 3:5 5:7"/>
    </vehicle>
    <vehicle id="328" depart="328.00">
        <route edges="18:3 3:5 5:7"/>
    </vehicle>
    <vehicle id="329" depart="329.00">
        <route edges="3:2 2:1 1:0 0:4 4:6"/>
    </vehicle>
    <vehicle id="331" depart="331.00">
        <route edges="17:16 16:3 3:2 2:1 1:0 0:8 8:9"/>
    </vehicle>
    <vehicle id="332" depart="332.00">
        <route edges="14:2 2:1 1:0 0:8 8:9"/>
    </vehicle>
    <vehicle id="333" depart="333.00">
        <route edges="5:3 3:16 16:17"/>
    </vehicle>
    <vehicle id="334" depart="334.00">
        <route edges="1:2 2:3 3:5"/>
    </vehicle>
    <vehicle id="337" depart="337.00">
        <route edges="11:10 10:0 0:8 8:9"/>
    </vehicle>
    <vehicle id="338" depart="338.00">
        <route edges="13:12 12:1 1:0 0:4"/>
    </vehicle>
    <vehicle id="339" depart="339.00">
        <route edges="6:4 4:0 0:1 1:2"/>
    </vehicle>
    <vehicle id="340" depart="340.00">
        <route edges="11:10 10:0 0:1 1:12 12:13"/>
    </vehicle>
    <vehicle id="342" depart="342.00">
        <route edges="11:10 10:0 0:1 1:2 2:3 3:5"/>
    </vehicle>
    <vehicle id="344" depart="344.00">
        <route edges="7:5 5:3 3:2 2:1 1:0 0:4 4:6"/>
    </vehicle>
    <vehicle id="346" depart="346.00">
        <route edges="7:5 5:3 3:16 16:17"/>
    </vehicle>
    <vehicle id="347" depart="347.00">
        <route edges="4:0 0:1 1:2 2:3 3:18 18:19"/>
    </vehicle>
    <vehicle id="351" depart="351.00">
        <route edges="15:14 14:2 2:1 1:0 0:4 4:6"/>
    </vehicle>
    <vehicle id="352" depart="352.00">
        <route edges="11:10 10:0 0:4"/>
    </vehicle>
    <vehicle id="353" depart="353.00">
        <route edges="17:16 16:3 3:2 2:1 1:0 0:4 4:6"/>
    </vehicle>
    <vehicle id="354" depart="354.00">
        <route edges="17:16 16:3 3:2 2:1 1:0 0:8 8:9"/>
    </vehicle>
    <vehicle id="356" depart="356.00">
        <route edges="7:5 5:3 3:16 16:17"/>
    </vehicle>
    <vehicle id="359" depart="359.00">
        <route edges="7:5 5:3 3:16 16:17"/>
    </vehicle>
    <vehicle id="360" depart="360.00">
        <route edges="16:3 3:5 5:7"/>
    </vehicle>
    <vehicle id="361" depart="361.00">
        <route edges="7:5 5:3 3:2 2:1 1:0 0:4 4:6"/>
    </vehicle>
    <vehicle id="362" depart="362.00">
        <route edges="10:0 0:1 1:2"/>
    </vehicle>
    <vehicle id="364" depart="364.00">
        <route edges="17:16 16:3 3:2 2:1 1:0 0:4"/>
    </vehicle>
    <vehicle id="369" depart="369.00">
        <route edges="11:10 10:0 0:1 1:2 2:3 3:5 5:7"/>
    </vehicle>
    <vehicle id="373" depart="373.00">
        <route edges="6:4 4:0 0:1 1:2 2:3 3:16 16:17"/>
    </vehicle>
    <vehicle id="374" depart="374.00">
        <route edges="19:18 18:3 3:2 2:1 1:0 0:10"/>
    </vehicle>
    <vehicle id="375" depart="375.00">
        <route edges="15:14 14:2 2:3 3:18 18:19"/>
    </vehicle>
    <vehicle id="376" depart="376.00">
        <route edges="6:4 4:0 0:1 1:2 2:3 3:5 5:7"/>
    </vehicle>
    <vehicle id="377" depart="377.00">
        <route edges="11:10 10:0"/>
    </vehicle>
    <vehicle id="378" depart="378.00">
        <route edges="5:3 3:2 2:1 1:0 0:10 10:11"/>
    </vehicle>
    <vehicle id="379" depart="379.00">
        <route edges="11:10 10:0 0:1 1:2 2:3 3:5 5:7"/>
    </vehicle>
    <vehicle id="381" depart="381.00">
        <route edges="19:18 18:3 3:5"/>
    </vehicle>
    <vehicle id="383" depart="383.00">
        <route edges="2:3 3:18"/>
    </vehicle>
    <vehicle id="384" depart="384.00">
        <route edges="17:16 16:3 3:2 2:1 1:0 0:4 4:6"/>
    </vehicle>
    <vehicle id="392" depart="392.00">
        <route edges="19:18 18:3 3:2 2:1 1:0 0:4 4:6"/>
    </vehicle>
    <vehicle id="394" depart="394.00">
        <route edges="0:1 1:2 2:3"/>
    </vehicle>
    <vehicle id="395" depart="395.00">
        <route edges="18:3 3:16 16:17"/>
    </vehicle>
    <vehicle id="398" depart="398.00">
        <route edges="3:5 5:7"/>
    </vehicle>
    <vehicle id="399" depart="399.00">
        <route edges="13:12 12:1 1:2 2:14 14:15"/>
    </vehicle>
    <vehicle id="402" depart="402.00">
        <route edges="13:12 12:1 1:0 0:4 4:6"/>
    </vehicle>
    <vehicle id="403" depart="403.00">
        <route edges="17:16 16:3 3:2 2:1 1:0 0:4 4:6"/>
    </vehicle>
    <vehicle id="406" depart="406.00">
        <route edges="4:0 0:1 1:2 2:3 3:5 5:7"/>
    </vehicle>
    <vehicle id="407" depart="407.00">
        <route edges="11:10 10:0 0:8 8:9"/>
    </vehicle>
    <vehicle id="408" depart="408.00">
        <route edges="5:3 3:2 2:1 1:0 0:4 4:6"/>
    </vehicle>
    <vehicle id="409" depart="409.00">
        <route edges="6:4 4:0 0:1 1:2 2:3 3:16 16:17"/>
    </vehicle>
    <vehicle id="414" depart="414.00">
        <route edges="9:8 8:0 0:4 4:6"/>
    </vehicle>
    <vehicle id="415" depart="415.00">
        <route edges="12:1 1:0 0:8 8:9"/>
    </vehicle>
    <vehicle id="416" depart="416.00">
        <route edges="9:8 8:0 0:1 1:2 2:3 3:5"/>
    </vehicle>
    <vehicle id="417" depart="417.00">
        <route edges="19:18 18:3 3:5 5:7"/>
    </vehicle>
    <vehicle id="421" depart="421.00">
        <route edges="4:0 0:1 1:2 2:3 3:5 5:7"/>
    </vehicle>
    <vehicle id="422" depart="422.00">
        <route edges="4:0 0:1 1:2 2:3 3:18 18:19"/>
    </vehicle>
    <vehicle id="426" depart="426.00">
        <route edges="17:16 16:3 3:5"/>
    </vehicle>
    <vehicle id="427" depart="427.00">
        <route edges="7:5 5:3 3:2 2:1 1:0 0:8 8:9"/>
    </vehicle>
    <vehicle id="428" depart="428.00">
        <route edges="6:4 4:0 0:1 1:2 2:3 3:5 5:7"/>
    </vehicle>
    <vehicle id="429" depart="429.00">
        <route edges="6:4 4:0 0:10 10:11"/>
    </vehicle>
    <vehicle id="430" depart="430.00">
        <route edges="11:10 10:0 0:1 1:2 2:3 3:5 5:7"/>
    </vehicle>
    <vehicle id="431" depart="431.00">
        <route edges="6:4 4:0 0:8 8:9"/>
    </vehicle>
    <vehicle id="432" depart="432.00">
        <route edges="11:10 10:0 0:4 4:6"/>
    </vehicle>
    <vehicle id="435" depart="435.00">
        <route edges="17:16 16:3 3:5 5:7"/>
    </vehicle>
    <vehicle id="438" depart="438.00">
        <route edges="9:8 8:0 0:1 1:2 2:3"/>
    </vehicle>
    <vehicle id="439" depart="439.00">
        <route edges="4:0 0:1 1:2 2:3 3:16"/>
    </vehicle>
    <vehicle id="440" depart="440.00">
        <route edges="2:1 1:12"/>
    </vehicle>
    <vehicle id="443" depart="443.00">
        <route edges="13:12 12:1 1:0 0:4 4:6"/>
    </vehicle>
    <vehicle id="448" depart="448.00">
        <route edges="19:18 18:3 3:2 2:1 1:0 0:4"/>
    </vehicle>
    <vehicle id="453" depart="453.00">
        <route edges="0:1"/>
    </vehicle>
    <vehicle id="456" depart="456.00">
        <route edges="5:3 3:2 2:1 1:12 12:13"/>
    </vehicle>
    <vehicle id="458" depart="458.00">
        <route edges="2:3 3:16 16:17"/>
    </vehicle>
    <vehicle id="459" depart="459.00">
        <route edges="7:5 5:3 3:2 2:1 1:0 0:8 8:9"/>
    </vehicle>
    <vehicle id="460" depart="460.00">
        <route edges="0:1 1:2 2:14"/>
    </vehicle>
    <vehicle id="461" depart="461.00">
        <route edges="6:4 4:0 0:1 1:2 2:3 3:5 5:7"/>
    </vehicle>
    <vehicle id="464" depart="464.00">
        <route edges="7:5 5:3 3:2 2:1 1:0 0:4"/>
    </vehicle>
    <vehicle id="467" depart="467.00">
        <route edges="2:3 3:16 16:17"/>
    </vehicle>
    <vehicle id="471" depart="471.00">
        <route edges="14:2 2:1 1:0 0:10"/>
    </vehicle>
    <vehicle id="474" depart="474.00">
        <route edges="9:8 8:0 0:1 1:2 2:3 3:18 18:19"/>
    </vehicle>
    <vehicle id="476" depart="476.00">
        <route edges="13:12 12:1 1:2 2:3 3:5 5:7"/>
    </vehicle>
    <vehicle id="477" depart="477.00">
        <route edges="9:8 8:0 0:1 1:2 2:3 3:5 5:7"/>
    </vehicle>
    <vehicle id="478" depart="478.00">
        <route edges="7:5 5:3 3:2 2:1 1:0 0:8 8:9"/>
    </vehicle>
    <vehicle id="479" depart="479.00">
        <route edges="0:1 1:2 2:3 3:16"/>
    </vehicle>
    <vehicle id="480" depart="480.00">
        <route edges="19:18 18:3 3:2 2:14 14:15"/>
    </vehicle>
    <vehicle id="481" depart="481.00">
        <route edges="6:4 4:0 0:1 1:2 2:3 3:5"/>
    </vehicle>
    <vehicle id="482" depart="482.00">
        <route edges="18:3 3:2 2:1 1:0 0:10"/>
    </vehicle>
    <vehicle id="483" depart="483.00">
        <route edges="0:4 4:6"/>
    </vehicle>
    <vehicle id="486" depart="486.00">
        <route edges="13:12 12:1 1:2 2:3 3:18"/>
    </vehicle>
    <vehicle id="488" depart="488.00">
        <route edges="15:14 14:2 2:3 3:18 18:19"/>
    </vehicle>
    <vehicle id="491" depart="491.00">
        <route edges="9:8 8:0 0:1 1:2 2:3"/>
    </vehicle>
    <vehicle id="492" depart="492.00">
        <route edges="16:3 3:2 2:1 1:0 0:4 4:6"/>
    </vehicle>
    <vehicle id="493" depart="493.00">
        <route edges="17:16 16:3 3:2"/>
    </vehicle>
    <vehicle id="495" depart="495.00">
        <route edges="17:16 16:3 3:2 2:14 14:15"/>
    </vehicle>
    <vehicle id="498" depart="498.00">
        <route edges="17:16 16:3 3:5 5:7"/>
    </vehicle>
    <vehicle id="499" depart="499.00">
        <route edges="7:5 5:3"/>
    </vehicle>
    <vehicle id="502" depart="502.00">
        <route edges="15:14 14:2 2:1"/>
    </vehicle>
    <vehicle id="503" depart="503.00">
        <route edges="7:5 5:3 3:2 2:1 1:0 0:10 10:11"/>
    </vehicle>
    <vehicle id="504" depart="504.00">
        <route edges="7:5 5:3 3:16 16:17"/>
    </vehicle>
    <vehicle id="506" depart="506.00">
        <route edges="11:10 10:0 0:1 1:2 2:3 3:5"/>
    </vehicle>
    <vehicle id="509" depart="509.00">
        <route edges="9:8 8:0 0:1 1:2 2:3"/>
    </vehicle>
    <vehicle id="510" depart="510.00">
        <route edges="1:0 0:8 8:9"/>
    </vehicle>
    <vehicle id="511" depart="511.00">
        <route edges="4:0 0:1 1:12"/>
    </vehicle>
    <vehicle id="512" depart="512.00">
        <route edges="6:4 4:0 0:8"/>
    </vehicle>
    <vehicle id="516" depart="516.00">
        <route edges="6:4 4:0 0:1 1:12"/>
    </vehicle>
    <vehicle id="523" depart="523.00">
        <route edges="4:0 0:1 1:2 2:3 3:5"/>
    </vehicle>
    <vehicle id="524" depart="524.00">
        <route edges="9:8 8:0 0:4 4:6"/>
    </vehicle>
    <vehicle id="526" depart="526.00">
        <route edges="17:16 16:3 3:2 2:1 1:12 12:13"/>
    </vehicle>
    <vehicle id="528" depart="528.00">
        <route edges="17:16 16:3 3:5"/>
    </vehicle>
    <vehicle id="529" depart="529.00">
        <route edges="14:2 2:3 3:5 5:7"/>
    </vehicle>
    <vehicle id="532" depart="532.00">
        <route edges="6:4 4:0"/>
    </vehicle>
    <vehicle id="534" depart="534.00">
        <route edges="17:16 16:3 3:2 2:1 1:12 12:13"/>
    </vehicle>
    <vehicle id="538" depart="538.00">
        <route edges="7:5 5:3"/>
    </vehicle>
    <vehicle id="540" depart="540.00">
        <route edges="3:2 2:1 1:0"/>
    </vehicle>
    <vehicle id="542" depart="542.00">
        <route edges="15:14 14:2 2:3 3:5 5:7"/>
    </vehicle>
    <vehicle id="544" depart="544.00">
        <route edges="7:5 5:3 3:2 2:1 1:0 0:10 10:11"/>
    </vehicle>
    <vehicle id="545" depart="545.00">
        <route edges="4:0 0:1"/>
    </vehicle>
    <vehicle id="546" depart="546.00">
        <route edges="19:18 18:3 3:2 2:1"/>
    </vehicle>
    <vehicle id="547" depart="547.00">
        <route edges="7:5 5:3 3:16 16:17"/>
    </vehicle>
    <vehicle id="551" depart="551.00">
        <route edges="11:10 10:0 0:1 1:12"/>
    </vehicle>
    <vehicle id="554" depart="554.00">
        <route edges="7:5 5:3 3:2 2:14 14:15"/>
    </vehicle>
    <vehicle id="555" depart="555.00">
        <route edges="13:12 12:1 1:0 0:8"/>
    </vehicle>
    <vehicle id="557" depart="557.00">
        <route edges="9:8 8:0 0:1 1:2 2:3 3:5 5:7"/>
    </vehicle>
    <vehicle id="559" depart="559.00">
        <route edges="0:1 1:2 2:14 14:15"/>
    </vehicle>
    <vehicle id="565" depart="565.00">
        <route edges="7:5 5:3 3:2 2:1 1:12 12:13"/>
    </vehicle>
    <vehicle id="567" depart="567.00">
        <route edges="17:16 16:3 3:2 2:1 1:12 12:13"/>
    </vehicle>
    <vehicle id="568" depart="568.00">
        <route edges="10:0 0:4 4:6"/>
    </vehicle>
    <vehicle id="569" depart="569.00">
        <route edges="19:18 18:3 3:5 5:7"/>
    </vehicle>
    <vehicle id="570" depart="570.00">
        <route edges="9:8 8:0 0:1 1:2 2:3 3:5 5:7"/>
    </vehicle>
    <vehicle id="574" depart="574.00">
        <route edges="9:8 8:0 0:4 4:6"/>
    </vehicle>
    <vehicle id="575" depart="575.00">
        <route edges="7:5 5:3 3:2 2:1 1:0 0:4 4:6"/>
    </vehicle>
    <vehicle id="577" depart="577.00">
        <route edges="5:3 3:2 2:14 14:15"/>
    </vehicle>
    <vehicle id="578" depart="578.00">
        <route edges="11:10 10:0 0:1 1:2 2:3 3:5 5:7"/>
    </vehicle>
    <vehicle id="580" depart="580.00">
        <route edges="7:5 5:3 3:2 2:1 1:0 0:8"/>
    </vehicle>
    <vehicle id="582" depart="582.00">
        <route edges="3:2"/>
    </vehicle>
    <vehicle id="583" depart="583.00">
        <route edges="15:14 14:2 2:1 1:12 12:13"/>
    </vehicle>
    <vehicle id="584" depart="584.00">
        <route edges="13:12 12:1 1:0 0:8 8:9"/>
    </vehicle>
    <vehicle id="588" depart="588.00">
        <route edges="17:16 16:3 3:2 2:1 1:0 0:10"/>
    </vehicle>
    <vehicle id="591" depart="591.00">
        <route edges="6:4 4:0 0:8 8:9"/>
    </vehicle>
    <vehicle id="594" depart="594.00">
        <route edges="3:5 5:7"/>
    </vehicle>
    <vehicle id="595" depart="595.00">
        <route edges="11:10 10:0 0:1 1:2 2:3"/>
    </vehicle>
    <vehicle id="597" depart="597.00">
        <route edges="7:5 5:3 3:2 2:14 14:15"/>
    </vehicle>
    <vehicle id="600" depart="600.00">
        <route edges="19:18 18:3 3:5"/>
    </vehicle>
    <vehicle id="601" depart="601.00">
        <route edges="19:18 18:3 3:2 2:1 1:12 12:13"/>
    </vehicle>
    <vehicle id="606" depart="606.00">
        <route edges="13:12 12:1 1:0 0:8 8:9"/>
    </vehicle>
    <vehicle id="607" depart="607.00">