<?xml version="1.0" encoding="UTF-8"?>

<!-- generated on Thu Oct 23 22:33:58 2014 by SUMO duarouter Version 0.18.0
<?xml version="1.0" encoding="UTF-8"?>

<configuration xmlns:xsi="http://www.w3.org/2001/XMLSchema-instance" xsi:noNamespaceSchemaLocation="http://sumo.sf.net/xsd/duarouterConfiguration.xsd">

    <input>
        <net-file value="corridor.net.xml"/>
        <trip-files value="experimentos/corridor.p0.1.9.trips.xml"/>
    </input>

    <output>
        <output-file value="experimentos/corridor.p0.1.9.rou.xml"/>
    </output>

    <processing>
        <ignore-errors value="true"/>
    </processing>

    <random_number>
        <random value="true"/>
    </random_number>

</configuration>
-->

<routes xmlns:xsi="http://www.w3.org/2001/XMLSchema-instance" xsi:noNamespaceSchemaLocation="http://sumo.sf.net/xsd/routes_file.xsd">
    <vehicle id="0" depart="0.00">
        <route edges="4:0 0:1 1:2 2:3 3:18 18:19"/>
    </vehicle>
    <vehicle id="2" depart="0.20">
        <route edges="15:14 14:2 2:3 3:18 18:19"/>
    </vehicle>
    <vehicle id="4" depart="0.40">
        <route edges="0:1 1:2 2:3 3:18 18:19"/>
    </vehicle>
    <vehicle id="6" depart="0.60">
        <route edges="17:16 16:3 3:2 2:1 1:0 0:8 8:9"/>
    </vehicle>
    <vehicle id="12" depart="1.20">
        <route edges="4:0 0:10"/>
    </vehicle>
    <vehicle id="13" depart="1.30">
        <route edges="17:16 16:3 3:2 2:1 1:0 0:4 4:6"/>
    </vehicle>
    <vehicle id="14" depart="1.40">
        <route edges="7:5 5:3 3:16 16:17"/>
    </vehicle>
    <vehicle id="16" depart="1.60">
        <route edges="15:14 14:2 2:1 1:0 0:10"/>
    </vehicle>
    <vehicle id="17" depart="1.70">
        <route edges="10:0 0:8"/>
    </vehicle>
    <vehicle id="18" depart="1.80">
        <route edges="10:0 0:1 1:2 2:3 3:18 18:19"/>
    </vehicle>
    <vehicle id="20" depart="2.00">
        <route edges="19:18 18:3 3:2 2:1 1:0 0:4 4:6"/>
    </vehicle>
    <vehicle id="22" depart="2.20">
        <route edges="11:10 10:0 0:1 1:2 2:3 3:16"/>
    </vehicle>
    <vehicle id="25" depart="2.50">
        <route edges="19:18 18:3 3:2 2:1 1:12 12:13"/>
    </vehicle>
    <vehicle id="26" depart="2.60">
        <route edges="3:5 5:7"/>
    </vehicle>
    <vehicle id="28" depart="2.80">
        <route edges="19:18 18:3 3:2 2:14 14:15"/>
    </vehicle>
    <vehicle id="29" depart="2.90">
        <route edges="11:10 10:0 0:1 1:2 2:3 3:5 5:7"/>
    </vehicle>
    <vehicle id="31" depart="3.10">
        <route edges="17:16 16:3 3:2 2:1 1:0 0:4 4:6"/>
    </vehicle>
    <vehicle id="32" depart="3.20">
        <route edges="10:0 0:1 1:2 2:3"/>
    </vehicle>
    <vehicle id="34" depart="3.40">
        <route edges="2:1 1:0 0:10 10:11"/>
    </vehicle>
    <vehicle id="35" depart="3.50">
        <route edges="18:3 3:5"/>
    </vehicle>
    <vehicle id="36" depart="3.60">
        <route edges="13:12 12:1 1:0 0:4 4:6"/>
    </vehicle>
    <vehicle id="37" depart="3.70">
        <route edges="6:4 4:0 0:1 1:12 12:13"/>
    </vehicle>
    <vehicle id="39" depart="3.90">
        <route edges="17:16 16:3 3:2 2:1 1:0 0:4 4:6"/>
    </vehicle>
    <vehicle id="41" depart="4.10">
        <route edges="3:5 5:7"/>
    </vehicle>
    <vehicle id="43" depart="4.30">
        <route edges="6:4 4:0 0:8 8:9"/>
    </vehicle>
    <vehicle id="45" depart="4.50">
        <route edges="1:2 2:3 3:18"/>
    </vehicle>
    <vehicle id="47" depart="4.70">
        <route edges="11:10 10:0 0:1 1:2 2:3 3:5 5:7"/>
    </vehicle>
    <vehicle id="55" depart="5.50">
        <route edges="12:1 1:2 2:14 14:15"/>
    </vehicle>
    <vehicle id="57" depart="5.70">
        <route edges="10:0 0:1 1:2 2:3 3:5 5:7"/>
    </vehicle>
    <vehicle id="62" depart="6.20">
        <route edges="7:5 5:3"/>
    </vehicle>
    <vehicle id="64" depart="6.40">
        <route edges="11:10 10:0 0:1 1:2 2:3 3:18"/>
    </vehicle>
    <vehicle id="67" depart="6.70">
        <route edges="6:4 4:0 0:8 8:9"/>
    </vehicle>
    <vehicle id="68" depart="6.80">
        <route edges="6:4 4:0 0:10"/>
    </vehicle>
    <vehicle id="69" depart="6.90">
        <route edges="0:1 1:2 2:3"/>
    </vehicle>
    <vehicle id="73" depart="7.30">
        <route edges="2:3 3:16 16:17"/>
    </vehicle>
    <vehicle id="75" depart="7.50">
        <route edges="12:1 1:2 2:3"/>
    </vehicle>
    <vehicle id="76" depart="7.60">
        <route edges="6:4 4:0 0:1 1:2 2:3 3:5 5:7"/>
    </vehicle>
    <vehicle id="77" depart="7.70">
        <route edges="19:18 18:3 3:5 5:7"/>
    </vehicle>
    <vehicle id="80" depart="8.00">
        <route edges="19:18 18:3 3:16 16:17"/>
    </vehicle>
    <vehicle id="81" depart="8.10">
        <route edges="17:16 16:3 3:2 2:1 1:0 0:8 8:9"/>
    </vehicle>
    <vehicle id="83" depart="8.30">
        <route edges="9:8 8:0 0:1 1:2 2:3 3:5 5:7"/>
    </vehicle>
    <vehicle id="84" depart="8.40">
        <route edges="6:4 4:0 0:1"/>
    </vehicle>
    <vehicle id="86" depart="8.60">
        <route edges="19:18 18:3 3:2 2:1 1:0 0:4 4:6"/>
    </vehicle>
    <vehicle id="87" depart="8.70">
        <route edges="0:1 1:2 2:3 3:5 5:7"/>
    </vehicle>
    <vehicle id="88" depart="8.80">
        <route edges="3:2 2:1 1:12"/>
    </vehicle>
    <vehicle id="90" depart="9.00">
        <route edges="17:16 16:3 3:2 2:1 1:0"/>
    </vehicle>
    <vehicle id="91" depart="9.10">
        <route edges="11:10 10:0 0:8 8:9"/>
    </vehicle>
    <vehicle id="96" depart="9.60">
        <route edges="16:3"/>
    </vehicle>
    <vehicle id="97" depart="9.70">
        <route edges="3:5"/>
    </vehicle>
    <vehicle id="98" depart="9.80">
        <route edges="11:10 10:0 0:4 4:6"/>
    </vehicle>
    <vehicle id="99" depart="9.90">
        <route edges="14:2 2:1 1:0 0:8 8:9"/>
    </vehicle>
    <vehicle id="101" depart="10.10">
        <route edges="9:8 8:0 0:1 1:2 2:3 3:5 5:7"/>
    </vehicle>
    <vehicle id="102" depart="10.20">
        <route edges="8:0 0:4 4:6"/>
    </vehicle>
    <vehicle id="104" depart="10.40">
        <route edges="11:10 10:0 0:1 1:2 2:14 14:15"/>
    </vehicle>
    <vehicle id="107" depart="10.70">
        <route edges="7:5 5:3"/>
    </vehicle>
    <vehicle id="109" depart="10.90">
        <route edges="3:2 2:1 1:0 0:4 4:6"/>
    </vehicle>
    <vehicle id="110" depart="11.00">
        <route edges="9:8 8:0 0:4 4:6"/>
    </vehicle>
    <vehicle id="114" depart="11.40">
        <route edges="15:14 14:2 2:3 3:18 18:19"/>
    </vehicle>
    <vehicle id="115" depart="11.50">
        <route edges="11:10 10:0 0:1 1:2 2:3 3:5 5:7"/>
    </vehicle>
    <vehicle id="116" depart="11.60">
        <route edges="6:4 4:0 0:8 8:9"/>
    </vehicle>
    <vehicle id="117" depart="11.70">
        <route edges="5:3"/>
    </vehicle>
    <vehicle id="118" depart="11.80">
        <route edges="17:16 16:3 3:2 2:1 1:0 0:8 8:9"/>
    </vehicle>
    <vehicle id="125" depart="12.50">
        <route edges="11:10 10:0 0:1 1:2 2:3 3:5"/>
    </vehicle>
    <vehicle id="130" depart="13.00">
        <route edges="6:4 4:0 0:1 1:2 2:3 3:16 16:17"/>
    </vehicle>
    <vehicle id="131" depart="13.10">
        <route edges="3:2 2:1 1:0 0:4 4:6"/>
    </vehicle>
    <vehicle id="132" depart="13.20">
        <route edges="5:3 3:2 2:1"/>
    </vehicle>
    <vehicle id="137" depart="13.70">
        <route edges="8:0 0:1"/>
    </vehicle>
    <vehicle id="140" depart="14.00">
        <route edges="13:12 12:1 1:2 2:14 14:15"/>
    </vehicle>
    <vehicle id="141" depart="14.10">
        <route edges="13:12 12:1 1:0 0:4 4:6"/>
    </vehicle>
    <vehicle id="146" depart="14.60">
        <route edges="19:18 18:3 3:2 2:14"/>
    </vehicle>
    <vehicle id="147" depart="14.70">
        <route edges="19:18 18:3 3:16"/>
    </vehicle>
    <vehicle id="152" depart="15.20">
        <route edges="16:3"/>
    </vehicle>
    <vehicle id="154" depart="15.40">
        <route edges="19:18 18:3 3:5 5:7"/>
    </vehicle>
    <vehicle id="156" depart="15.60">
        <route edges="6:4 4:0 0:8 8:9"/>
    </vehicle>
    <vehicle id="158" depart="15.80">
        <route edges="6:4 4:0 0:1 1:2 2:3 3:16 16:17"/>
    </vehicle>
    <vehicle id="160" depart="16.00">
        <route edges="19:18 18:3 3:2 2:1 1:0 0:4 4:6"/>
    </vehicle>
    <vehicle id="161" depart="16.10">
        <route edges="15:14 14:2 2:1 1:0 0:10"/>
    </vehicle>
    <vehicle id="162" depart="16.20">
        <route edges="7:5 5:3 3:2 2:1 1:0 0:4 4:6"/>
    </vehicle>
    <vehicle id="163" depart="16.30">
        <route edges="15:14 14:2 2:3 3:18 18:19"/>
    </vehicle>
    <vehicle id="164" depart="16.40">
        <route edges="2:3"/>
    </vehicle>
    <vehicle id="167" depart="16.70">
        <route edges="17:16 16:3 3:2 2:1 1:12"/>
    </vehicle>
    <vehicle id="171" depart="17.10">
        <route edges="3:5 5:7"/>
    </vehicle>
    <vehicle id="174" depart="17.40">
        <route edges="5:3 3:2 2:14"/>
    </vehicle>
    <vehicle id="175" depart="17.50">
        <route edges="1:2 2:3 3:5 5:7"/>
    </vehicle>
    <vehicle id="179" depart="17.90">
        <route edges="11:10 10:0 0:1 1:2 2:3 3:16 16:17"/>
    </vehicle>
    <vehicle id="184" depart="18.40">
        <route edges="16:3 3:2 2:14 14:15"/>
    </vehicle>
    <vehicle id="187" depart="18.70">
        <route edges="6:4 4:0 0:1 1:12 12:13"/>
    </vehicle>
    <vehicle id="193" depart="19.30">
        <route edges="18:3 3:16 16:17"/>
    </vehicle>
    <vehicle id="194" depart="19.40">
        <route edges="4:0 0:1 1:2 2:3 3:5 5:7"/>
    </vehicle>
    <vehicle id="195" depart="19.50">
        <route edges="5:3"/>
    </vehicle>
    <vehicle id="197" depart="19.70">
        <route edges="7:5 5:3 3:16 16:17"/>
    </vehicle>
    <vehicle id="199" depart="19.90">
        <route edges="4:0 0:1 1:12 12:13"/>
    </vehicle>
    <vehicle id="201" depart="20.10">
        <route edges="9:8 8:0 0:1 1:2 2:3 3:18 18:19"/>
    </vehicle>
    <vehicle id="206" depart="20.60">
        <route edges="7:5 5:3 3:2 2:1 1:0 0:8 8:9"/>
    </vehicle>
    <vehicle id="207" depart="20.70">
        <route edges="16:3 3:5 5:7"/>
    </vehicle>
    <vehicle id="209" depart="20.90">
        <route edges="11:10 10:0 0:1"/>
    </vehicle>
    <vehicle id="210" depart="21.00">
        <route edges="17:16 16:3 3:2 2:1 1:0 0:10 10:11"/>
    </vehicle>
    <vehicle id="212" depart="21.20">
        <route edges="7:5 5:3 3:2 2:1 1:12 12:13"/>
    </vehicle>
    <vehicle id="215" depart="21.50">
        <route edges="13:12 12:1 1:0"/>
    </vehicle>
    <vehicle id="217" depart="21.70">
        <route edges="11:10 10:0 0:4 4:6"/>
    </vehicle>
    <vehicle id="218" depart="21.80">
        <route edges="5:3 3:2 2:1 1:0 0:10 10:11"/>
    </vehicle>
    <vehicle id="224" depart="22.40">
        <route edges="17:16 16:3 3:2 2:1 1:12"/>
    </vehicle>
    <vehicle id="225" depart="22.50">
        <route edges="11:10 10:0 0:1"/>
    </vehicle>
    <vehicle id="227" depart="22.70">
        <route edges="9:8 8:0 0:1 1:2 2:3"/>
    </vehicle>
    <vehicle id="228" depart="22.80">
        <route edges="19:18 18:3"/>
    </vehicle>
    <vehicle id="230" depart="23.00">
        <route edges="15:14 14:2 2:3 3:16 16:17"/>
    </vehicle>
    <vehicle id="231" depart="23.10">
        <route edges="5:3 3:2"/>
    </vehicle>
    <vehicle id="233" depart="23.30">
        <route edges="17:16 16:3 3:2 2:1 1:0 0:10 10:11"/>
    </vehicle>
    <vehicle id="234" depart="23.40">
        <route edges="19:18 18:3 3:2 2:1 1:0 0:4"/>
    </vehicle>
    <vehicle id="237" depart="23.70">
        <route edges="7:5 5:3 3:2 2:1 1:0 0:4 4:6"/>
    </vehicle>
    <vehicle id="240" depart="24.00">
        <route edges="3:18"/>
    </vehicle>
    <vehicle id="242" depart="24.20">
        <route edges="7:5 5:3 3:16 16:17"/>
    </vehicle>
    <vehicle id="248" depart="24.80">
        <route edges="19:18 18:3 3:2 2:1 1:0 0:4 4:6"/>
    </vehicle>
    <vehicle id="249" depart="24.90">
        <route edges="15:14 14:2 2:3 3:5 5:7"/>
    </vehicle>
    <vehicle id="250" depart="25.00">
        <route edges="0:1 1:2 2:14"/>
    </vehicle>
    <vehicle id="251" depart="25.10">
        <route edges="3:2 2:1 1:12 12:13"/>
    </vehicle>
    <vehicle id="254" depart="25.40">
        <route edges="12:1 1:2 2:3 3:5 5:7"/>
    </vehicle>
    <vehicle id="255" depart="25.50">
        <route edges="4:0 0:10 10:11"/>
    </vehicle>
    <vehicle id="257" depart="25.70">
        <route edges="11:10 10:0 0:1 1:2 2:14 14:15"/>
    </vehicle>
    <vehicle id="258" depart="25.80">
        <route edges="13:12 12:1 1:0 0:4 4:6"/>
    </vehicle>
    <vehicle id="259" depart="25.90">
        <route edges="9:8 8:0 0:4 4:6"/>
    </vehicle>
    <vehicle id="260" depart="26.00">
        <route edges="6:4 4:0 0:1 1:2 2:3 3:5 5:7"/>
    </vehicle>
    <vehicle id="261" depart="26.10">
        <route edges="14:2 2:3 3:5 5:7"/>
    </vehicle>
    <vehicle id="262" depart="26.20">
        <route edges="8:0 0:10 10:11"/>
    </vehicle>
    <vehicle id="263" depart="26.30">
        <route edges="19:18 18:3 3:2 2:1 1:0 0:8 8:9"/>
    </vehicle>
    <vehicle id="264" depart="26.40">
        <route edges="0:4 4:6"/>
    </vehicle>
    <vehicle id="265" depart="26.50">
        <route edges="5:3 3:2 2:1 1:0 0:10 10:11"/>
    </vehicle>
    <vehicle id="266" depart="26.60">
        <route edges="19:18 18:3 3:2 2:1 1:12 12:13"/>
    </vehicle>
    <vehicle id="269" depart="26.90">
        <route edges="5:3 3:16 16:17"/>
    </vehicle>
    <vehicle id="271" depart="27.10">
        <route edges="13:12 12:1 1:0 0:8 8:9"/>
    </vehicle>
    <vehicle id="273" depart="27.30">
        <route edges="13:12 12:1 1:2 2:3 3:5 5:7"/>
    </vehicle>
    <vehicle id="274" depart="27.40">
        <route edges="7:5 5:3 3:2 2:1 1:0 0:4 4:6"/>
    </vehicle>
    <vehicle id="275" depart="27.50">
        <route edges="11:10 10:0 0:1 1:2 2:3 3:18 18:19"/>
    </vehicle>
    <vehicle id="278" depart="27.80">
        <route edges="19:18 18:3 3:2 2:1 1:12 12:13"/>
    </vehicle>
    <vehicle id="282" depart="28.20">
        <route edges="7:5 5:3 3:18 18:19"/>
    </vehicle>
    <vehicle id="285" depart="28.50">
        <route edges="2:3 3:5 5:7"/>
    </vehicle>
    <vehicle id="288" depart="28.80">
        <route edges="6:4 4:0 0:1 1:2 2:3 3:5 5:7"/>
    </vehicle>
    <vehicle id="291" depart="29.10">
        <route edges="4:0 0:1 1:2 2:3 3:5 5:7"/>
    </vehicle>
    <vehicle id="294" depart="29.40">
        <route edges="10:0 0:1 1:12 12:13"/>
    </vehicle>
    <vehicle id="298" depart="29.80">
        <route edges="8:0 0:4 4:6"/>
    </vehicle>
    <vehicle id="300" depart="30.00">
        <route edges="5:3 3:16 16:17"/>
    </vehicle>
    <vehicle id="303" depart="30.30">
        <route edges="2:3"/>
    </vehicle>
    <vehicle id="305" depart="30.50">
        <route edges="10:0 0:4 4:6"/>
    </vehicle>
    <vehicle id="306" depart="30.60">
        <route edges="11:10 10:0 0:4 4:6"/>
    </vehicle>
    <vehicle id="307" depart="30.70">
        <route edges="10:0 0:1 1:2 2:3 3:5 5:7"/>
    </vehicle>
    <vehicle id="308" depart="30.80">
        <route edges="5:3 3:2 2:1 1:0 0:4 4:6"/>
    </vehicle>
    <vehicle id="309" depart="30.90">
        <route edges="6:4 4:0 0:1 1:2 2:3"/>
    </vehicle>
    <vehicle id="312" depart="31.20">
        <route edges="12:1 1:0 0:8 8:9"/>
    </vehicle>
    <vehicle id="314" depart="31.40">
        <route edges="7:5 5:3 3:2 2:1 1:12"/>
    </vehicle>
    <vehicle id="315" depart="31.50">
        <route edges="15:14 14:2 2:3 3:5 5:7"/>
    </vehicle>
    <vehicle id="322" depart="32.20">
        <route edges="16:3 3:2 2:1 1:0 0:4"/>
    </vehicle>
    <vehicle id="324" depart="32.40">
        <route edges="18:3 3:5 5:7"/>
    </vehicle>
    <vehicle id="325" depart="32.50">
        <route edges="15:14 14:2 2:3 3:16"/>
    </vehicle>
    <vehicle id="326" depart="32.60">
        <route edges="12:1 1:0 0:8"/>
    </vehicle>
    <vehicle id="327" depart="32.70">
        <route edges="12:1 1:2 2:3 3:5"/>
    </vehicle>
    <vehicle id="328" depart="32.80">
        <route edges="3:5 5:7"/>
    </vehicle>
    <vehicle id="330" depart="33.00">
        <route edges="15:14 14:2 2:1 1:0 0:4"/>
    </vehicle>
    <vehicle id="333" depart="33.30">
        <route edges="11:10 10:0 0:1 1:2 2:3 3:5 5:7"/>
    </vehicle>
    <vehicle id="334" depart="33.40">
        <route edges="9:8 8:0 0:1 1:2 2:14 14:15"/>
    </vehicle>
    <vehicle id="335" depart="33.50">
        <route edges="9:8 8:0 0:1 1:2 2:3 3:16 16:17"/>
    </vehicle>
    <vehicle id="336" depart="33.60">
        <route edges="5:3 3:2 2:1 1:0 0:4"/>
    </vehicle>
    <vehicle id="338" depart="33.80">
        <route edges="18:3 3:5 5:7"/>
    </vehicle>
    <vehicle id="339" depart="33.90">
        <route edges="17:16 16:3 3:2 2:1 1:12 12:13"/>
    </vehicle>
    <vehicle id="340" depart="34.00">
        <route edges="15:14 14:2 2:1 1:0"/>
    </vehicle>
    <vehicle id="342" depart="34.20">
        <route edges="14:2 2:1 1:0 0:4"/>
    </vehicle>
    <vehicle id="343" depart="34.30">
        <route edges="11:10 10:0 0:1 1:2 2:3 3:16 16:17"/>
    </vehicle>
    <vehicle id="344" depart="34.40">
        <route edges="6:4 4:0 0:10 10:11"/>
    </vehicle>
    <vehicle id="345" depart="34.50">
        <route edges="7:5 5:3 3:2 2:1 1:12 12:13"/>
    </vehicle>
    <vehicle id="346" depart="34.60">
        <route edges="11:10 10:0 0:4"/>
    </vehicle>
    <vehicle id="348" depart="34.80">
        <route edges="13:12 12:1 1:0 0:8 8:9"/>
    </vehicle>
    <vehicle id="349" depart="34.90">
        <route edges="19:18 18:3 3:5 5:7"/>
    </vehicle>
    <vehicle id="351" depart="35.10">
        <route edges="7:5 5:3 3:2 2:1 1:12 12:13"/>
    </vehicle>
    <vehicle id="352" depart="35.20">
        <route edges="19:18 18:3 3:2 2:14 14:15"/>
    </vehicle>
    <vehicle id="355" depart="35.50">
        <route edges="6:4 4:0 0:1 1:2 2:3 3:16 16:17"/>
    </vehicle>
    <vehicle id="356" depart="35.60">
        <route edges="6:4 4:0 0:1 1:2 2:3 3:5 5:7"/>
    </vehicle>
    <vehicle id="357" depart="35.70">
        <route edges="12:1 1:2 2:3"/>
    </vehicle>
    <vehicle id="358" depart="35.80">
        <route edges="16:3 3:5"/>
    </vehicle>
    <vehicle id="359" depart="35.90">
        <route edges="7:5 5:3"/>
    </vehicle>
    <vehicle id="362" depart="36.20">
        <route edges="17:16 16:3 3:2 2:1 1:0"/>
    </vehicle>
    <vehicle id="364" depart="36.40">
        <route edges="13:12 12:1 1:0 0:4"/>
    </vehicle>
    <vehicle id="366" depart="36.60">
        <route edges="9:8 8:0 0:4 4:6"/>
    </vehicle>
    <vehicle id="367" depart="36.70">
        <route edges="17:16 16:3 3:2 2:1 1:0 0:8"/>
    </vehicle>
    <vehicle id="368" depart="36.80">
        <route edges="13:12 12:1 1:0"/>
    </vehicle>
    <vehicle id="374" depart="37.40">
        <route edges="11:10 10:0 0:1 1:2 2:14 14:15"/>
    </vehicle>
    <vehicle id="375" depart="37.50">
        <route edges="7:5 5:3 3:2 2:1 1:0 0:4"/>
    </vehicle>
    <vehicle id="376" depart="37.60">
        <route edges="18:3 3:5 5:7"/>
    </vehicle>
    <vehicle id="377" depart="37.70">
        <route edges="13:12 12:1 1:2 2:3 3:5 5:7"/>
    </vehicle>
    <vehicle id="379" depart="37.90">
        <route edges="13:12 12:1 1:2 2:3 3:18"/>
    </vehicle>
    <vehicle id="385" depart="38.50">
        <route edges="4:0 0:10 10:11"/>
    </vehicle>
    <vehicle id="386" depart="38.60">
        <route edges="2:1 1:0 0:4"/>
    </vehicle>
    <vehicle id="390" depart="39.00">
        <route edges="7:5 5:3 3:2 2:1 1:0 0:4 4:6"/>
    </vehicle>
    <vehicle id="391" depart="39.10">
        <route edges="3:18"/>
    </vehicle>
    <vehicle id="392" depart="39.20">
        <route edges="8:0 0:1 1:2 2:14 14:15"/>
    </vehicle>
    <vehicle id="393" depart="39.30">
        <route edges="17:16 16:3 3:18"/>
    </vehicle>
    <vehicle id="396" depart="39.60">
        <route edges="4:0 0:1 1:2 2:3 3:18 18:19"/>
    </vehicle>
    <vehicle id="398" depart="39.80">
        <route edges="6:4 4:0"/>
    </vehicle>
    <vehicle id="400" depart="40.00">
        <route edges="13:12 12:1 1:0 0:4 4:6"/>
    </vehicle>
    <vehicle id="401" depart="40.10">
        <route edges="4:0 0:10"/>
    </vehicle>
    <vehicle id="402" depart="40.20">
        <route edges="13:12 12:1 1:2 2:14 14:15"/>
    </vehicle>
    <vehicle id="403" depart="40.30">
        <route edges="4:0 0:1 1:2 2:3 3:18 18:19"/>
    </vehicle>
    <vehicle id="404" depart="40.40">
        <route edges="4:0 0:1 1:2 2:3 3:16 16:17"/>
    </vehicle>
    <vehicle id="408" depart="40.80">
        <route edges="5:3 3:16 16:17"/>
    </vehicle>
    <vehicle id="409" depart="40.90">
        <route edges="10:0 0:1 1:2 2:3 3:5 5:7"/>
    </vehicle>
    <vehicle id="410" depart="41.00">
        <route edges="7:5 5:3 3:16 16:17"/>
    </vehicle>
    <vehicle id="411" depart="41.10">
        <route edges="18:3 3:2 2:1 1:12 12:13"/>
    </vehicle>
    <vehicle id="413" depart="41.30">
        <route edges="15:14 14:2 2:1 1:0 0:4 4:6"/>
    </vehicle>
    <vehicle id="416" depart="41.60">
        <route edges="15:14 14:2 2:1 1:0 0:8 8:9"/>
    </vehicle>
    <vehicle id="418" depart="41.80">
        <route edges="7:5 5:3 3:2 2:1 1:0 0:4"/>
    </vehicle>
    <vehicle id="420" depart="42.00">
        <route edges="11:10 10:0 0:4 4:6"/>
    </vehicle>
    <vehicle id="421" depart="42.10">
        <route edges="6:4 4:0 0:1 1:2 2:3 3:5 5:7"/>
    </vehicle>
    <vehicle id="427" depart="42.70">
        <route edges="5:3 3:2 2:14 14:15"/>
    </vehicle>
    <vehicle id="429" depart="42.90">
        <route edges="13:12 12:1 1:2 2:3"/>
    </vehicle>
    <vehicle id="430" depart="43.00">
        <route edges="7:5 5:3 3:18"/>
    </vehicle>
    <vehicle id="433" depart="43.30">
        <route edges="14:2 2:1 1:0 0:4"/>
    </vehicle>
    <vehicle id="434" depart="43.40">
        <route edges="15:14 14:2 2:3"/>
    </vehicle>
    <vehicle id="435" depart="43.50">
        <route edges="18:3 3:2 2:1 1:0 0:4 4:6"/>
    </vehicle>
    <vehicle id="436" depart="43.60">
        <route edges="1:2 2:14 14:15"/>
    </vehicle>
    <vehicle id="437" depart="43.70">
        <route edges="15:14 14:2 2:1 1:0 0:4 4:6"/>
    </vehicle>
    <vehicle id="438" depart="43.80">
        <route edges="7:5 5:3 3:2 2:1 1:0 0:8 8:9"/>
    </vehicle>
    <vehicle id="439" depart="43.90">
        <route edges="2:3 3:18 18:19"/>
    </vehicle>
    <vehicle id="440" depart="44.00">
        <route edges="6:4 4:0 0:1 1:2 2:14 14:15"/>
    </vehicle>
    <vehicle id="441" depart="44.10">
        <route edges="3:2 2:14 14:15"/>
    </vehicle>
    <vehicle id="444" depart="44.40">
        <route edges="9:8 8:0 0:4 4:6"/>
    </vehicle>
    <vehicle id="448" depart="44.80">
        <route edges="10:0 0:1 1:2 2:3 3:18 18:19"/>
    </vehicle>
    <vehicle id="453" depart="45.30">
        <route edges="1:2 2:3 3:5 5:7"/>
    </vehicle>
    <vehicle id="454" depart="45.40">
        <route edges="9:8 8:0 0:10 10:11"/>
    </vehicle>
    <vehicle id="455" depart="45.50">
        <route edges="9:8 8:0 0:1 1:2 2:3 3:16 16:17"/>
    </vehicle>
    <vehicle id="456" depart="45.60">
        <route edges="6:4 4:0 0:8 8:9"/>
    </vehicle>
    <vehicle id="457" depart="45.70">
        <route edges="13:12 12:1 1:2 2:14"/>
    </vehicle>
    <vehicle id="459" depart="45.90">
        <route edges="8:0 0:1 1:12 12:13"/>
    </vehicle>
    <vehicle id="460" depart="46.00">
        <route edges="5:3 3:16"/>
    </vehicle>
    <vehicle id="461" depart="46.10">
        <route edges="6:4 4:0 0:1 1:2 2:14 14:15"/>
    </vehicle>
    <vehicle id="464" depart="46.40">
        <route edges="7:5 5:3"/>
    </vehicle>
    <vehicle id="469" depart="46.90">
        <route edges="6:4 4:0 0:1 1:2 2:3 3:5"/>
    </vehicle>
    <vehicle id="476" depart="47.60">
        <route edges="7:5 5:3 3:2 2:1 1:0 0:10"/>
    </vehicle>
    <vehicle id="483" depart="48.30">
        <route edges="6:4 4:0 0:8 8:9"/>
    </vehicle>
    <vehicle id="484" depart="48.40">
        <route edges="9:8 8:0 0:1 1:2 2:3 3:5 5:7"/>
    </vehicle>
    <vehicle id="485" depart="48.50">
        <route edges="7:5 5:3 3:2 2:14 14:15"/>
    </vehicle>
    <vehicle id="487" depart="48.70">
        <route edges="11:10 10:0 0:8"/>
    </vehicle>
    <vehicle id="489" depart="48.90">
        <route edges="9:8 8:0 0:4"/>
    </vehicle>
    <vehicle id="492" depart="49.20">
        <route edges="6:4 4:0 0:8 8:9"/>
    </vehicle>
    <vehicle id="496" depart="49.60">
        <route edges="13:12 12:1 1:2 2:3 3:5"/>
    </vehicle>
    <vehicle id="499" depart="49.90">
        <route edges="15:14 14:2 2:3 3:18 18:19"/>
    </vehicle>
    <vehicle id="501" depart="50.10">
        <route edges="1:0 0:8"/>
    </vehicle>
    <vehicle id="502" depart="50.20">
        <route edges="13:12 12:1 1:2 2:3 3:18 18:19"/>
    </vehicle>
    <vehicle id="505" depart="50.50">
        <route edges="0:4 4:6"/>
    </vehicle>
    <vehicle id="510" depart="51.00">
        <route edges="14:2 2:1 1:0 0:8"/>
    </vehicle>
    <vehicle id="511" depart="51.10">
        <route edges="5:3 3:2 2:14 14:15"/>
    </vehicle>
    <vehicle id="513" depart="51.30">
        <route edges="5:3 3:2 2:14 14:15"/>
    </vehicle>
    <vehicle id="515" depart="51.50">
        <route edges="1:0 0:10 10:11"/>
    </vehicle>
    <vehicle id="516" depart="51.60">
        <route edges="3:2 2:1 1:0 0:4"/>
    </vehicle>
    <vehicle id="517" depart="51.70">
        <route edges="12:1 1:0 0:4 4:6"/>
    </vehicle>
    <vehicle id="518" depart="51.80">
        <route edges="13:12 12:1 1:2 2:3 3:5 5:7"/>
    </vehicle>
    <vehicle id="519" depart="51.90">
        <route edges="2:3 3:16 16:17"/>
    </vehicle>
    <vehicle id="521" depart="52.10">
        <route edges="19:18 18:3 3:16 16:17"/>
    </vehicle>
    <vehicle id="522" depart="52.20">
        <route edges="6:4 4:0 0:1 1:12"/>
    </vehicle>
    <vehicle id="523" depart="52.30">
        <route edges="13:12 12:1 1:2 2:3 3:5 5:7"/>
    </vehicle>
    <vehicle id="524" depart="52.40">
        <route edges="17:16 16:3 3:2 2:14 14:15"/>
    </vehicle>
    <vehicle id="525" depart="52.50">
        <route edges="13:12 12:1 1:2 2:3 3:18 18:19"/>
    </vehicle>
    <vehicle id="529" depart="52.90">
        <route edges="8:0 0:1 1:2 2:3 3:5 5:7"/>
    </vehicle>
    <vehicle id="534" depart="53.40">
        <route edges="11:10 10:0 0:1 1:2 2:3 3:5 5:7"/>
    </vehicle>
    <vehicle id="535" depart="53.50">
        <route edges="7:5 5:3 3:2 2:1 1:0"/>
    </vehicle>
    <vehicle id="536" depart="53.60">
        <route edges="16:3 3:2 2:1 1:0 0:4 4:6"/>
    </vehicle>
    <vehicle id="538" depart="53.80">
        <route edges="1:0 0:4 4:6"/>
    </vehicle>
    <vehicle id="539" depart="53.90">
        <route edges="5:3 3:16 16:17"/>
    </vehicle>
    <vehicle id="541" depart="54.10">
        <route edges="18:3 3:2 2:14"/>
    </vehicle>
    <vehicle id="545" depart="54.50">
        <route edges="14:2 2:1 1:0 0:4"/>
    </vehicle>
    <vehicle id="547" depart="54.70">
        <route edges="19:18 18:3 3:2 2:1 1:0 0:4 4:6"/>
    </vehicle>
    <vehicle id="553" depart="55.30">
        <route edges="1:2 2:3 3:5 5:7"/>
    </vehicle>
    <vehicle id="555" depart="55.50">
        <route edges="16:3 3:2 2:1 1:12 12:13"/>
    </vehicle>
    <vehicle id="556" depart="55.60">
        <route edges="12:1 1:0 0:8 8:9"/>
    </vehicle>
    <vehicle id="558" depart="55.80">
        <route edges="19:18 18:3 3:2 2:1 1:12"/>
    </vehicle>
    <vehicle id="559" depart="55.90">
        <route edges="11:10 10:0 0:4 4:6"/>
    </vehicle>
    <vehicle id="560" depart="56.00">
        <route edges="4:0 0:1 1:2 2:3 3:18"/>
    </vehicle>
    <vehicle id="562" depart="56.20">
        <route edges="7:5 5:3 3:2 2:1 1:0 0:4 4:6"/>
    </vehicle>
    <vehicle id="564" depart="56.40">
        <route edges="15:14 14:2 2:1 1:0 0:4 4:6"/>
    </vehicle>
    <vehicle id="568" depart="56.80">
        <route edges="11:10 10:0 0:4 4:6"/>
    </vehicle>
    <vehicle id="569" depart="56.90">
        <route edges="6:4 4:0 0:1 1:2 2:3 3:5 5:7"/>
    </vehicle>
    <vehicle id="571" depart="57.10">
        <route edges="9:8 8:0 0:1 1:2 2:14 14:15"/>
    </vehicle>
    <vehicle id="573" depart="57.30">
        <route edges="0:10 10:11"/>
    </vehicle>
    <vehicle id="574" depart="57.40">
        <route edges="19:18 18:3 3:2 2:1 1:0 0:10"/>
    </vehicle>
    <vehicle id="576" depart="57.60">
        <route edges="9:8 8:0 0:1 1:12 12:13"/>
    </vehicle>
    <vehicle id="577" depart="57.70">
        <route edges="6:4 4:0 0:1 1:2 2:3 3:18 18:19"/>
    </vehicle>
    <vehicle id="578" depart="57.80">
        <route edges="6:4 4:0 0:1 1:2 2:3 3:5 5:7"/>
    </vehicle>
    <vehicle id="579" depart="57.90">
        <route edges="9:8 8:0 0:1 1:2 2:3 3:5"/>
    </vehicle>
    <vehicle id="580" depart="58.00">
        <route edges="5:3 3:2 2:1 1:0 0:8 8:9"/>
    </vehicle>
    <vehicle id="582" depart="58.20">
        <route edges="10:0 0:1 1:12 12:13"/>
    </vehicle>
    <vehicle id="583" depart="58.30">
        <route edges="6:4 4:0 0:1 1:2 2:3 3:5 5:7"/>
    </vehicle>
    <vehicle id="586" depart="58.60">
        <route edges="17:16 16:3 3:2 2:1"/>
    </vehicle>
    <vehicle id="594" depart="59.40">
        <route edges="18:3 3:2 2:1 1:0 0:8 8:9"/>
    </vehicle>
    <vehicle id="595" depart="59.50">
        <route edges="7:5 5:3 3:2 2:1 1:0"/>
    </vehicle>
    <vehicle id="599" depart="59.90">
        <route edges="6:4 4:0 0:1"/>
    </vehicle>
    <vehicle id="601" depart="60.10">
        <route edges="13:12 12:1 1:2 2:3 3:18 18:19"/>
    </vehicle>
    <vehicle id="603" depart="60.30">
        <route edges="7:5 5:3 3:2 2:1 1:0 0:4 4:6"/>
    </vehicle>
    <vehicle id="607" depart="60.70">
        <route edges="13:12 12:1 1:2 2:3 3:18"/>
    </vehicle>
    <vehicle id="608" depart="60.80">
        <route edges="13:12 12:1 1:0 0:8 8:9"/>
    </vehicle>