<?xml version="1.0" encoding="UTF-8"?>

<!-- generated on Thu Oct 23 22:34:11 2014 by SUMO duarouter Version 0.18.0
<?xml version="1.0" encoding="UTF-8"?>

<configuration xmlns:xsi="http://www.w3.org/2001/XMLSchema-instance" xsi:noNamespaceSchemaLocation="http://sumo.sf.net/xsd/duarouterConfiguration.xsd">

    <input>
        <net-file value="corridor.net.xml"/>
        <trip-files value="experimentos/corridor.p0.4.5.trips.xml"/>
    </input>

    <output>
        <output-file value="experimentos/corridor.p0.4.5.rou.xml"/>
    </output>

    <processing>
        <ignore-errors value="true"/>
    </processing>

    <random_number>
        <random value="true"/>
    </random_number>

</configuration>
-->

<routes xmlns:xsi="http://www.w3.org/2001/XMLSchema-instance" xsi:noNamespaceSchemaLocation="http://sumo.sf.net/xsd/routes_file.xsd">
    <vehicle id="2" depart="0.80">
        <route edges="7:5 5:3 3:2 2:1 1:0 0:10"/>
    </vehicle>
    <vehicle id="6" depart="2.40">
        <route edges="5:3 3:2 2:1 1:0 0:10 10:11"/>
    </vehicle>
    <vehicle id="8" depart="3.20">
        <route edges="14:2 2:1 1:0 0:4 4:6"/>
    </vehicle>
    <vehicle id="12" depart="4.80">
        <route edges="3:2"/>
    </vehicle>
    <vehicle id="13" depart="5.20">
        <route edges="19:18 18:3 3:2 2:1 1:0"/>
    </vehicle>
    <vehicle id="14" depart="5.60">
        <route edges="7:5 5:3 3:2 2:1 1:12"/>
    </vehicle>
    <vehicle id="16" depart="6.40">
        <route edges="11:10 10:0 0:1 1:2 2:3 3:5 5:7"/>
    </vehicle>
    <vehicle id="17" depart="6.80">
        <route edges="13:12 12:1 1:0"/>
    </vehicle>
    <vehicle id="18" depart="7.20">
        <route edges="8:0 0:10 10:11"/>
    </vehicle>
    <vehicle id="19" depart="7.60">
        <route edges="10:0 0:1 1:2 2:3 3:5 5:7"/>
    </vehicle>
    <vehicle id="21" depart="8.40">
        <route edges="11:10 10:0 0:1 1:2 2:3 3:5"/>
    </vehicle>
    <vehicle id="22" depart="8.80">
        <route edges="4:0 0:1 1:2 2:3"/>
    </vehicle>
    <vehicle id="26" depart="10.40">
        <route edges="9:8 8:0 0:1 1:2 2:3 3:5"/>
    </vehicle>
    <vehicle id="27" depart="10.80">
        <route edges="13:12 12:1 1:2 2:3 3:5 5:7"/>
    </vehicle>
    <vehicle id="29" depart="11.60">
        <route edges="9:8 8:0 0:1 1:2 2:14 14:15"/>
    </vehicle>
    <vehicle id="32" depart="12.80">
        <route edges="18:3 3:2 2:14 14:15"/>
    </vehicle>
    <vehicle id="33" depart="13.20">
        <route edges="4:0 0:1 1:2 2:3 3:5 5:7"/>
    </vehicle>
    <vehicle id="34" depart="13.60">
        <route edges="9:8 8:0 0:10"/>
    </vehicle>
    <vehicle id="39" depart="15.60">
        <route edges="18:3 3:2 2:1 1:12 12:13"/>
    </vehicle>
    <vehicle id="41" depart="16.40">
        <route edges="19:18 18:3 3:2 2:1 1:0 0:8 8:9"/>
    </vehicle>
    <vehicle id="42" depart="16.80">
        <route edges="11:10 10:0 0:1 1:2 2:3 3:5 5:7"/>
    </vehicle>
    <vehicle id="43" depart="17.20">
        <route edges="4:0 0:1 1:2 2:14 14:15"/>
    </vehicle>
    <vehicle id="45" depart="18.00">
        <route edges="17:16 16:3 3:2 2:1 1:0 0:4 4:6"/>
    </vehicle>
    <vehicle id="47" depart="18.80">
        <route edges="2:1 1:0 0:8"/>
    </vehicle>
    <vehicle id="50" depart="20.00">
        <route edges="13:12 12:1 1:0 0:8 8:9"/>
    </vehicle>
    <vehicle id="52" depart="20.80">
        <route edges="3:2 2:1 1:0"/>
    </vehicle>
    <vehicle id="53" depart="21.20">
        <route edges="8:0 0:1 1:12 12:13"/>
    </vehicle>
    <vehicle id="54" depart="21.60">
        <route edges="2:3 3:18 18:19"/>
    </vehicle>
    <vehicle id="55" depart="22.00">
        <route edges="19:18 18:3 3:2 2:1 1:12"/>
    </vehicle>
    <vehicle id="58" depart="23.20">
        <route edges="0:1 1:2 2:3 3:18"/>
    </vehicle>
    <vehicle id="59" depart="23.60">
        <route edges="15:14 14:2 2:3"/>
    </vehicle>
    <vehicle id="60" depart="24.00">
        <route edges="4:0"/>
    </vehicle>
    <vehicle id="61" depart="24.40">
        <route edges="6:4 4:0 0:1 1:2"/>
    </vehicle>
    <vehicle id="62" depart="24.80">
        <route edges="6:4 4:0 0:1 1:12"/>
    </vehicle>
    <vehicle id="71" depart="28.40">
        <route edges="12:1 1:0 0:4 4:6"/>
    </vehicle>
    <vehicle id="77" depart="30.80">
        <route edges="17:16 16:3 3:5 5:7"/>
    </vehicle>
    <vehicle id="78" depart="31.20">
        <route edges="2:1 1:12 12:13"/>
    </vehicle>
    <vehicle id="79" depart="31.60">
        <route edges="6:4 4:0 0:1 1:2 2:3 3:5 5:7"/>
    </vehicle>
    <vehicle id="81" depart="32.40">
        <route edges="17:16 16:3 3:18"/>
    </vehicle>
    <vehicle id="89" depart="35.60">
        <route edges="7:5 5:3 3:2 2:1 1:0 0:4 4:6"/>
    </vehicle>
    <vehicle id="90" depart="36.00">
        <route edges="15:14 14:2 2:3 3:5 5:7"/>
    </vehicle>
    <vehicle id="92" depart="36.80">
        <route edges="11:10 10:0 0:1 1:2 2:3 3:5 5:7"/>
    </vehicle>
    <vehicle id="95" depart="38.00">
        <route edges="12:1 1:0 0:4"/>
    </vehicle>
    <vehicle id="96" depart="38.40">
        <route edges="8:0 0:1 1:2 2:14 14:15"/>
    </vehicle>
    <vehicle id="97" depart="38.80">
        <route edges="15:14 14:2 2:3 3:18 18:19"/>
    </vehicle>
    <vehicle id="98" depart="39.20">
        <route edges="0:4 4:6"/>
    </vehicle>
    <vehicle id="102" depart="40.80">
        <route edges="18:3 3:2 2:1 1:0 0:4 4:6"/>
    </vehicle>
    <vehicle id="103" depart="41.20">
        <route edges="5:3"/>
    </vehicle>
    <vehicle id="107" depart="42.80">
        <route edges="5:3"/>
    </vehicle>
    <vehicle id="110" depart="44.00">
        <route edges="3:5"/>
    </vehicle>
    <vehicle id="112" depart="44.80">
        <route edges="6:4 4:0 0:1 1:2 2:14 14:15"/>
    </vehicle>
    <vehicle id="113" depart="45.20">
        <route edges="7:5 5:3 3:16 16:17"/>
    </vehicle>
    <vehicle id="114" depart="45.60">
        <route edges="7:5 5:3 3:2 2:14 14:15"/>
    </vehicle>
    <vehicle id="115" depart="46.00">
        <route edges="7:5 5:3 3:2 2:1 1:0 0:4 4:6"/>
    </vehicle>
    <vehicle id="116" depart="46.40">
        <route edges="4:0 0:1 1:2 2:3 3:18 18:19"/>
    </vehicle>
    <vehicle id="118" depart="47.20">
        <route edges="7:5 5:3 3:2 2:1 1:12 12:13"/>
    </vehicle>
    <vehicle id="123" depart="49.20">
        <route edges="11:10 10:0 0:8 8:9"/>
    </vehicle>
    <vehicle id="125" depart="50.00">
        <route edges="6:4 4:0 0:1 1:12 12:13"/>
    </vehicle>
    <vehicle id="126" depart="50.40">
        <route edges="13:12 12:1 1:0 0:4 4:6"/>
    </vehicle>
    <vehicle id="128" depart="51.20">
        <route edges="12:1 1:0 0:8 8:9"/>
    </vehicle>
    <vehicle id="129" depart="51.60">
        <route edges="0:1 1:2 2:3 3:5 5:7"/>
    </vehicle>
    <vehicle id="130" depart="52.00">
        <route edges="19:18 18:3 3:2 2:1 1:0 0:8"/>
    </vehicle>
    <vehicle id="132" depart="52.80">
        <route edges="14:2 2:1 1:0 0:10"/>
    </vehicle>
    <vehicle id="136" depart="54.40">
        <route edges="6:4 4:0 0:1 1:2 2:3 3:18 18:19"/>
    </vehicle>
    <vehicle id="137" depart="54.80">
        <route edges="3:5 5:7"/>
    </vehicle>
    <vehicle id="138" depart="55.20">
        <route edges="11:10 10:0 0:1 1:2 2:3 3:16"/>
    </vehicle>
    <vehicle id="140" depart="56.00">
        <route edges="6:4 4:0 0:1 1:2 2:3 3:5 5:7"/>
    </vehicle>
    <vehicle id="141" depart="56.40">
        <route edges="14:2 2:3 3:5 5:7"/>
    </vehicle>
    <vehicle id="142" depart="56.80">
        <route edges="19:18 18:3 3:2 2:14 14:15"/>
    </vehicle>
    <vehicle id="143" depart="57.20">
        <route edges="7:5 5:3 3:16 16:17"/>
    </vehicle>
    <vehicle id="145" depart="58.00">
        <route edges="19:18 18:3"/>
    </vehicle>
    <vehicle id="146" depart="58.40">
        <route edges="3:2 2:1 1:0 0:4"/>
    </vehicle>
    <vehicle id="147" depart="58.80">
        <route edges="18:3 3:5 5:7"/>
    </vehicle>
    <vehicle id="148" depart="59.20">
        <route edges="11:10 10:0 0:4 4:6"/>
    </vehicle>
    <vehicle id="149" depart="59.60">
        <route edges="15:14 14:2 2:1 1:0 0:4 4:6"/>
    </vehicle>
    <vehicle id="150" depart="60.00">
        <route edges="18:3 3:2 2:1 1:12 12:13"/>
    </vehicle>
    <vehicle id="152" depart="60.80">
        <route edges="5:3 3:2 2:1 1:0 0:8 8:9"/>
    </vehicle>
    <vehicle id="153" depart="61.20">
        <route edges="11:10 10:0 0:1 1:2 2:14 14:15"/>
    </vehicle>
    <vehicle id="160" depart="64.00">
        <route edges="4:0 0:10"/>
    </vehicle>
    <vehicle id="162" depart="64.80">
        <route edges="17:16 16:3 3:2 2:1 1:0 0:4 4:6"/>
    </vehicle>
    <vehicle id="167" depart="66.80">
        <route edges="10:0 0:1 1:2 2:14 14:15"/>
    </vehicle>
    <vehicle id="168" depart="67.20">
        <route edges="8:0 0:1 1:2 2:3 3:5 5:7"/>
    </vehicle>
    <vehicle id="169" depart="67.60">
        <route edges="3:5 5:7"/>
    </vehicle>
    <vehicle id="170" depart="68.00">
        <route edges="15:14 14:2 2:1 1:0 0:10 10:11"/>
    </vehicle>
    <vehicle id="171" depart="68.40">
        <route edges="12:1 1:2 2:3 3:5 5:7"/>
    </vehicle>
    <vehicle id="172" depart="68.80">
        <route edges="0:1 1:12 12:13"/>
    </vehicle>
    <vehicle id="173" depart="69.20">
        <route edges="10:0 0:4 4:6"/>
    </vehicle>
    <vehicle id="174" depart="69.60">
        <route edges="12:1 1:0 0:8 8:9"/>
    </vehicle>
    <vehicle id="176" depart="70.40">
        <route edges="12:1 1:2 2:14 14:15"/>
    </vehicle>
    <vehicle id="180" depart="72.00">
        <route edges="7:5 5:3 3:2 2:1 1:0 0:4"/>
    </vehicle>
    <vehicle id="187" depart="74.80">
        <route edges="8:0 0:1 1:2 2:3 3:18 18:19"/>
    </vehicle>
    <vehicle id="190" depart="76.00">
        <route edges="3:2 2:1 1:12 12:13"/>
    </vehicle>
    <vehicle id="191" depart="76.40">
        <route edges="0:8 8:9"/>
    </vehicle>
    <vehicle id="192" depart="76.80">
        <route edges="14:2 2:3 3:5 5:7"/>
    </vehicle>
    <vehicle id="193" depart="77.20">
        <route edges="15:14 14:2 2:1 1:0"/>
    </vehicle>
    <vehicle id="194" depart="77.60">
        <route edges="10:0 0:1 1:2 2:3 3:5"/>
    </vehicle>
    <vehicle id="195" depart="78.00">
        <route edges="12:1 1:2 2:3 3:5 5:7"/>
    </vehicle>
    <vehicle id="196" depart="78.40">
        <route edges="7:5 5:3 3:2 2:1 1:0"/>
    </vehicle>
    <vehicle id="197" depart="78.80">
        <route edges="15:14 14:2 2:3 3:5 5:7"/>
    </vehicle>
    <vehicle id="198" depart="79.20">
        <route edges="15:14 14:2 2:3 3:5 5:7"/>
    </vehicle>
    <vehicle id="201" depart="80.40">
        <route edges="15:14 14:2 2:1 1:12 12:13"/>
    </vehicle>
    <vehicle id="202" depart="80.80">
        <route edges="6:4 4:0 0:1 1:2 2:3 3:5"/>
    </vehicle>
    <vehicle id="205" depart="82.00">
        <route edges="17:16 16:3 3:2 2:14 14:15"/>
    </vehicle>
    <vehicle id="207" depart="82.80">
        <route edges="6:4 4:0 0:1 1:2 2:3 3:18"/>
    </vehicle>
    <vehicle id="208" depart="83.20">
        <route edges="3:2 2:1 1:0 0:4"/>
    </vehicle>
    <vehicle id="210" depart="84.00">
        <route edges="5:3 3:2 2:1"/>
    </vehicle>
    <vehicle id="211" depart="84.40">
        <route edges="6:4 4:0 0:1 1:12"/>
    </vehicle>
    <vehicle id="212" depart="84.80">
        <route edges="7:5 5:3"/>
    </vehicle>
    <vehicle id="214" depart="85.60">
        <route edges="0:1 1:2 2:3 3:16"/>
    </vehicle>
    <vehicle id="215" depart="86.00">
        <route edges="5:3 3:2 2:1 1:0"/>
    </vehicle>
    <vehicle id="219" depart="87.60">
        <route edges="1:0 0:10"/>
    </vehicle>
    <vehicle id="220" depart="88.00">
        <route edges="5:3 3:18 18:19"/>
    </vehicle>
    <vehicle id="221" depart="88.40">
        <route edges="17:16 16:3 3:2 2:1 1:0 0:8"/>
    </vehicle>
    <vehicle id="223" depart="89.20">
        <route edges="7:5 5:3"/>
    </vehicle>
    <vehicle id="224" depart="89.60">
        <route edges="10:0 0:1 1:2 2:3 3:18 18:19"/>
    </vehicle>
    <vehicle id="226" depart="90.40">
        <route edges="16:3 3:2 2:1 1:0 0:8 8:9"/>
    </vehicle>
    <vehicle id="227" depart="90.80">
        <route edges="11:10 10:0 0:1 1:2 2:3 3:5 5:7"/>
    </vehicle>
    <vehicle id="228" depart="91.20">
        <route edges="5:3 3:2 2:1 1:0 0:8"/>
    </vehicle>
    <vehicle id="230" depart="92.00">
        <route edges="19:18 18:3 3:5 5:7"/>
    </vehicle>
    <vehicle id="232" depart="92.80">
        <route edges="2:14 14:15"/>
    </vehicle>
    <vehicle id="239" depart="95.60">
        <route edges="5:3 3:2 2:1 1:0 0:4 4:6"/>
    </vehicle>
    <vehicle id="240" depart="96.00">
        <route edges="15:14 14:2 2:1 1:0 0:4 4:6"/>
    </vehicle>
    <vehicle id="241" depart="96.40">
        <route edges="7:5 5:3 3:2 2:1 1:12"/>
    </vehicle>
    <vehicle id="242" depart="96.80">
        <route edges="19:18 18:3 3:16 16:17"/>
    </vehicle>
    <vehicle id="243" depart="97.20">
        <route edges="13:12 12:1 1:0 0:8 8:9"/>
    </vehicle>
    <vehicle id="244" depart="97.60">
        <route edges="15:14 14:2 2:3 3:16"/>
    </vehicle>
    <vehicle id="246" depart="98.40">
        <route edges="13:12 12:1 1:0 0:10 10:11"/>
    </vehicle>
    <vehicle id="248" depart="99.20">
        <route edges="2:3 3:5 5:7"/>
    </vehicle>
    <vehicle id="254" depart="101.60">
        <route edges="10:0 0:4"/>
    </vehicle>
    <vehicle id="255" depart="102.00">
        <route edges="11:10 10:0 0:1 1:2 2:3 3:5 5:7"/>
    </vehicle>
    <vehicle id="257" depart="102.80">
        <route edges="6:4 4:0 0:8 8:9"/>
    </vehicle>
    <vehicle id="258" depart="103.20">
        <route edges="11:10 10:0 0:1 1:2 2:3 3:5 5:7"/>
    </vehicle>
    <vehicle id="259" depart="103.60">
        <route edges="18:3 3:16 16:17"/>
    </vehicle>
    <vehicle id="262" depart="104.80">
        <route edges="11:10 10:0 0:1 1:2 2:3 3:5 5:7"/>
    </vehicle>
    <vehicle id="264" depart="105.60">
        <route edges="9:8 8:0 0:1 1:2 2:3"/>
    </vehicle>
    <vehicle id="266" depart="106.40">
        <route edges="6:4 4:0 0:1 1:2 2:3 3:5 5:7"/>
    </vehicle>
    <vehicle id="267" depart="106.80">
        <route edges="11:10 10:0 0:1 1:2 2:3 3:5 5:7"/>
    </vehicle>
    <vehicle id="270" depart="108.00">
        <route edges="14:2 2:1 1:0 0:4 4:6"/>
    </vehicle>
    <vehicle id="271" depart="108.40">
        <route edges="7:5 5:3 3:2 2:1 1:0"/>
    </vehicle>
    <vehicle id="272" depart="108.80">
        <route edges="9:8 8:0 0:4 4:6"/>
    </vehicle>
    <vehicle id="273" depart="109.20">
        <route edges="12:1 1:0 0:10 10:11"/>
    </vehicle>
    <vehicle id="279" depart="111.60">
        <route edges="15:14 14:2 2:3 3:5 5:7"/>
    </vehicle>
    <vehicle id="280" depart="112.00">
        <route edges="6:4 4:0 0:8 8:9"/>
    </vehicle>
    <vehicle id="281" depart="112.40">
        <route edges="9:8 8:0 0:1 1:12 12:13"/>
    </vehicle>
    <vehicle id="282" depart="112.80">
        <route edges="4:0 0:10 10:11"/>
    </vehicle>
    <vehicle id="284" depart="113.60">
        <route edges="5:3 3:2 2:1 1:12 12:13"/>
    </vehicle>
    <vehicle id="285" depart="114.00">
        <route edges="15:14 14:2 2:3 3:5 5:7"/>
    </vehicle>
    <vehicle id="288" depart="115.20">
        <route edges="9:8 8:0 0:1 1:2 2:14 14:15"/>
    </vehicle>
    <vehicle id="290" depart="116.00">
        <route edges="3:2 2:1 1:12 12:13"/>
    </vehicle>
    <vehicle id="291" depart="116.40">
        <route edges="13:12 12:1 1:2 2:3 3:5 5:7"/>
    </vehicle>
    <vehicle id="293" depart="117.20">
        <route edges="2:3 3:5"/>
    </vehicle>
    <vehicle id="294" depart="117.60">
        <route edges="19:18 18:3 3:2 2:14 14:15"/>
    </vehicle>
    <vehicle id="298" depart="119.20">
        <route edges="15:14 14:2 2:1 1:0 0:4 4:6"/>
    </vehicle>
    <vehicle id="300" depart="120.00">
        <route edges="4:0 0:1 1:2 2:3 3:16"/>
    </vehicle>
    <vehicle id="302" depart="120.80">
        <route edges="6:4 4:0 0:1 1:2"/>
    </vehicle>
    <vehicle id="303" depart="121.20">
        <route edges="6:4 4:0 0:8 8:9"/>
    </vehicle>
    <vehicle id="304" depart="121.60">
        <route edges="17:16 16:3 3:5 5:7"/>
    </vehicle>
    <vehicle id="308" depart="123.20">
        <route edges="2:1"/>
    </vehicle>
    <vehicle id="309" depart="123.60">
        <route edges="15:14 14:2 2:1"/>
    </vehicle>
    <vehicle id="310" depart="124.00">
        <route edges="2:3 3:16 16:17"/>
    </vehicle>
    <vehicle id="313" depart="125.20">
        <route edges="2:3"/>
    </vehicle>
    <vehicle id="314" depart="125.60">
        <route edges="13:12 12:1 1:2 2:3 3:18"/>
    </vehicle>
    <vehicle id="315" depart="126.00">
        <route edges="5:3 3:2"/>
    </vehicle>
    <vehicle id="318" depart="127.20">
        <route edges="17:16 16:3 3:2 2:1 1:0 0:8"/>
    </vehicle>
    <vehicle id="319" depart="127.60">
        <route edges="6:4 4:0 0:1 1:2 2:3 3:5"/>
    </vehicle>
    <vehicle id="327" depart="130.80">
        <route edges="11:10 10:0 0:1"/>
    </vehicle>
    <vehicle id="328" depart="131.20">
        <route edges="4:0 0:1 1:12 12:13"/>
    </vehicle>
    <vehicle id="329" depart="131.60">
        <route edges="9:8 8:0 0:1"/>
    </vehicle>
    <vehicle id="330" depart="132.00">
        <route edges="13:12 12:1 1:2 2:3 3:18 18:19"/>
    </vehicle>
    <vehicle id="332" depart="132.80">
        <route edges="3:5 5:7"/>
    </vehicle>
    <vehicle id="333" depart="133.20">
        <route edges="16:3 3:5"/>
    </vehicle>
    <vehicle id="335" depart="134.00">
        <route edges="11:10 10:0 0:8 8:9"/>
    </vehicle>
    <vehicle id="336" depart="134.40">
        <route edges="8:0 0:1 1:2 2:3 3:5"/>
    </vehicle>
    <vehicle id="337" depart="134.80">
        <route edges="15:14 14:2 2:3 3:18"/>
    </vehicle>
    <vehicle id="339" depart="135.60">
        <route edges="8:0 0:1 1:2 2:3 3:18"/>
    </vehicle>
    <vehicle id="340" depart="136.00">
        <route edges="8:0 0:4 4:6"/>
    </vehicle>
    <vehicle id="341" depart="136.40">
        <route edges="6:4 4:0 0:10 10:11"/>
    </vehicle>
    <vehicle id="342" depart="136.80">
        <route edges="17:16 16:3 3:5 5:7"/>
    </vehicle>
    <vehicle id="344" depart="137.60">
        <route edges="9:8 8:0 0:1 1:2 2:3 3:18"/>
    </vehicle>
    <vehicle id="346" depart="138.40">
        <route edges="9:8 8:0 0:1 1:2 2:3 3:18 18:19"/>
    </vehicle>
    <vehicle id="347" depart="138.80">
        <route edges="9:8 8:0 0:10 10:11"/>
    </vehicle>
    <vehicle id="348" depart="139.20">
        <route edges="7:5 5:3 3:2 2:14 14:15"/>
    </vehicle>
    <vehicle id="349" depart="139.60">
        <route edges="15:14 14:2 2:3 3:5 5:7"/>
    </vehicle>
    <vehicle id="350" depart="140.00">
        <route edges="6:4 4:0 0:10"/>
    </vehicle>
    <vehicle id="352" depart="140.80">
        <route edges="4:0 0:1 1:2 2:3 3:5 5:7"/>
    </vehicle>
    <vehicle id="353" depart="141.20">
        <route edges="17:16 16:3 3:5 5:7"/>
    </vehicle>
    <vehicle id="354" depart="141.60">
        <route edges="9:8 8:0 0:4 4:6"/>
    </vehicle>
    <vehicle id="355" depart="142.00">
        <route edges="7:5 5:3 3:16 16:17"/>
    </vehicle>
    <vehicle id="357" depart="142.80">
        <route edges="15:14 14:2 2:3 3:5"/>
    </vehicle>
    <vehicle id="358" depart="143.20">
        <route edges="3:2 2:1 1:0 0:8 8:9"/>
    </vehicle>
    <vehicle id="359" depart="143.60">
        <route edges="8:0 0:1 1:2 2:3 3:5"/>
    </vehicle>
    <vehicle id="361" depart="144.40">
        <route edges="2:1"/>
    </vehicle>
    <vehicle id="364" depart="145.60">
        <route edges="10:0 0:4 4:6"/>
    </vehicle>
    <vehicle id="366" depart="146.40">
        <route edges="3:2 2:1 1:12 12:13"/>
    </vehicle>
    <vehicle id="367" depart="146.80">
        <route edges="7:5 5:3 3:2 2:1 1:0 0:8 8:9"/>
    </vehicle>
    <vehicle id="371" depart="148.40">
        <route edges="9:8 8:0 0:1 1:2 2:3 3:5 5:7"/>
    </vehicle>
    <vehicle id="372" depart="148.80">
        <route edges="7:5 5:3 3:2 2:1 1:0 0:4"/>
    </vehicle>
    <vehicle id="375" depart="150.00">
        <route edges="14:2 2:1 1:0 0:4 4:6"/>
    </vehicle>
    <vehicle id="376" depart="150.40">
        <route edges="18:3 3:2 2:1 1:0"/>
    </vehicle>
    <vehicle id="377" depart="150.80">
        <route edges="9:8 8:0 0:1 1:2 2:3 3:16"/>
    </vehicle>
    <vehicle id="378" depart="151.20">
        <route edges="19:18 18:3 3:16 16:17"/>
    </vehicle>
    <vehicle id="380" depart="152.00">
        <route edges="17:16 16:3 3:2 2:1 1:0 0:4 4:6"/>
    </vehicle>
    <vehicle id="381" depart="152.40">
        <route edges="17:16 16:3 3:2 2:1 1:0 0:8 8:9"/>
    </vehicle>
    <vehicle id="382" depart="152.80">
        <route edges="6:4 4:0 0:1"/>
    </vehicle>
    <vehicle id="385" depart="154.00">
        <route edges="16:3 3:2 2:1 1:0 0:4"/>
    </vehicle>
    <vehicle id="386" depart="154.40">
        <route edges="17:16 16:3 3:2 2:1 1:0 0:10 10:11"/>
    </vehicle>
    <vehicle id="389" depart="155.60">
        <route edges="6:4 4:0 0:10 10:11"/>
    </vehicle>
    <vehicle id="391" depart="156.40">
        <route edges="6:4 4:0 0:1 1:2 2:3 3:18 18:19"/>
    </vehicle>
    <vehicle id="392" depart="156.80">
        <route edges="7:5 5:3 3:2 2:1 1:0 0:4 4:6"/>
    </vehicle>
    <vehicle id="393" depart="157.20">
        <route edges="7:5 5:3 3:2"/>
    </vehicle>
    <vehicle id="394" depart="157.60">
        <route edges="0:1 1:2 2:3 3:5"/>
    </vehicle>
    <vehicle id="396" depart="158.40">
        <route edges="11:10 10:0 0:1 1:2 2:3"/>
    </vehicle>
    <vehicle id="399" depart="159.60">
        <route edges="16:3 3:5 5:7"/>
    </vehicle>
    <vehicle id="400" depart="160.00">
        <route edges="15:14 14:2 2:1 1:12 12:13"/>
    </vehicle>
    <vehicle id="403" depart="161.20">
        <route edges="19:18 18:3 3:2 2:1 1:0 0:4 4:6"/>
    </vehicle>
    <vehicle id="404" depart="161.60">
        <route edges="7:5 5:3 3:2 2:1"/>
    </vehicle>
    <vehicle id="409" depart="163.60">
        <route edges="6:4 4:0 0:1 1:2 2:3 3:5"/>
    </vehicle>
    <vehicle id="410" depart="164.00">
        <route edges="2:1 1:0 0:4 4:6"/>
    </vehicle>
    <vehicle id="411" depart="164.40">
        <route edges="7:5 5:3 3:2 2:14 14:15"/>
    </vehicle>
    <vehicle id="412" depart="164.80">
        <route edges="6:4 4:0 0:8 8:9"/>
    </vehicle>
    <vehicle id="413" depart="165.20">
        <route edges="7:5 5:3 3:2 2:1 1:0 0:10 10:11"/>
    </vehicle>
    <vehicle id="418" depart="167.20">
        <route edges="19:18 18:3 3:2 2:1 1:12 12:13"/>
    </vehicle>
    <vehicle id="419" depart="167.60">
        <route edges="13:12 12:1 1:2 2:3"/>
    </vehicle>
    <vehicle id="421" depart="168.40">
        <route edges="7:5 5:3"/>
    </vehicle>
    <vehicle id="422" depart="168.80">
        <route edges="4:0 0:1 1:2 2:3 3:16"/>
    </vehicle>
    <vehicle id="423" depart="169.20">
        <route edges="7:5 5:3 3:2 2:14 14:15"/>
    </vehicle>
    <vehicle id="424" depart="169.60">
        <route edges="11:10 10:0 0:1 1:2 2:3 3:18 18:19"/>
    </vehicle>
    <vehicle id="425" depart="170.00">
        <route edges="6:4 4:0 0:1 1:2"/>
    </vehicle>
    <vehicle id="426" depart="170.40">
        <route edges="15:14 14:2 2:1 1:0 0:4"/>
    </vehicle>
    <vehicle id="431" depart="172.40">
        <route edges="10:0 0:1 1:2 2:3 3:16"/>
    </vehicle>
    <vehicle id="432" depart="172.80">
        <route edges="9:8 8:0 0:1 1:2"/>
    </vehicle>
    <vehicle id="433" depart="173.20">
        <route edges="17:16 16:3 3:2 2:1 1:0"/>
    </vehicle>
    <vehicle id="434" depart="173.60">
        <route edges="17:16 16:3 3:2 2:14"/>
    </vehicle>
    <vehicle id="435" depart="174.00">
        <route edges="5:3 3:2 2:1 1:0 0:8"/>
    </vehicle>
    <vehicle id="436" depart="174.40">
        <route edges="16:3 3:18"/>
    </vehicle>
    <vehicle id="437" depart="174.80">
        <route edges="1:2 2:3 3:5 5:7"/>
    </vehicle>
    <vehicle id="438" depart="175.20">
        <route edges="5:3 3:2"/>
    </vehicle>
    <vehicle id="441" depart="176.40">
        <route edges="14:2 2:1 1:0 0:4"/>
    </vehicle>
    <vehicle id="442" depart="176.80">
        <route edges="1:0 0:4 4:6"/>
    </vehicle>
    <vehicle id="443" depart="177.20">
        <route edges="14:2 2:1 1:0 0:8"/>
    </vehicle>
    <vehicle id="445" depart="178.00">
        <route edges="14:2 2:3 3:16 16:17"/>
    </vehicle>
    <vehicle id="446" depart="178.40">
        <route edges="11:10 10:0 0:1 1:2 2:3 3:16 16:17"/>
    </vehicle>
    <vehicle id="447" depart="178.80">
        <route edges="4:0 0:1 1:12 12:13"/>
    </vehicle>
    <vehicle id="448" depart="179.20">
        <route edges="13:12 12:1 1:0 0:4 4:6"/>
    </vehicle>
    <vehicle id="450" depart="180.00">
        <route edges="9:8 8:0 0:1 1:2 2:3 3:5 5:7"/>
    </vehicle>
    <vehicle id="452" depart="180.80">
        <route edges="6:4 4:0 0:1 1:2 2:3 3:16"/>
    </vehicle>
    <vehicle id="454" depart="181.60">
        <route edges="6:4 4:0 0:1 1:12 12:13"/>
    </vehicle>
    <vehicle id="455" depart="182.00">
        <route edges="8:0 0:1 1:2 2:3"/>
    </vehicle>
    <vehicle id="457" depart="182.80">
        <route edges="1:2 2:3 3:5 5:7"/>
    </vehicle>
    <vehicle id="458" depart="183.20">
        <route edges="19:18 18:3 3:16 16:17"/>
    </vehicle>
    <vehicle id="461" depart="184.40">
        <route edges="12:1 1:0 0:10"/>
    </vehicle>
    <vehicle id="463" depart="185.20">
        <route edges="17:16 16:3 3:18 18:19"/>
    </vehicle>
    <vehicle id="465" depart="186.00">
        <route edges="7:5 5:3 3:2 2:1 1:0 0:8 8:9"/>
    </vehicle>
    <vehicle id="467" depart="186.80">
        <route edges="2:1 1:0 0:4 4:6"/>
    </vehicle>
    <vehicle id="468" depart="187.20">
        <route edges="10:0 0:1 1:2 2:3 3:18 18:19"/>
    </vehicle>
    <vehicle id="471" depart="188.40">
        <route edges="3:2 2:1 1:12 12:13"/>
    </vehicle>
    <vehicle id="472" depart="188.80">
        <route edges="6:4 4:0 0:1 1:2 2:3 3:5 5:7"/>
    </vehicle>
    <vehicle id="476" depart="190.40">
        <route edges="11:10 10:0 0:1 1:2 2:3"/>
    </vehicle>
    <vehicle id="480" depart="192.00">
        <route edges="16:3 3:2 2:1 1:0 0:4"/>
    </vehicle>
    <vehicle id="481" depart="192.40">
        <route edges="9:8 8:0 0:1 1:2 2:3 3:16 16:17"/>
    </vehicle>
    <vehicle id="483" depart="193.20">
        <route edges="9:8 8:0 0:1 1:2 2:14 14:15"/>
    </vehicle>
    <vehicle id="484" depart="193.60">
        <route edges="6:4 4:0 0:1 1:2 2:3 3:18"/>
    </vehicle>
    <vehicle id="486" depart="194.40">
        <route edges="6:4 4:0 0:1 1:2 2:3 3:5 5:7"/>
    </vehicle>
    <vehicle id="488" depart="195.20">
        <route edges="1:0 0:4"/>
    </vehicle>
    <vehicle id="490" depart="196.00">
        <route edges="0:1 1:2 2:3 3:16"/>
    </vehicle>
    <vehicle id="491" depart="196.40">
        <route edges="17:16 16:3 3:18"/>
    </vehicle>
    <vehicle id="493" depart="197.20">
        <route edges="6:4 4:0 0:8 8:9"/>
    </vehicle>
    <vehicle id="494" depart="197.60">
        <route edges="9:8 8:0 0:1 1:2 2:14 14:15"/>
    </vehicle>
    <vehicle id="496" depart="198.40">
        <route edges="17:16 16:3 3:2 2:1 1:12 12:13"/>
    </vehicle>
    <vehicle id="499" depart="199.60">
        <route edges="3:2 2:1 1:0 0:10"/>
    </vehicle>
    <vehicle id="500" depart="200.00">
        <route edges="11:10 10:0 0:1 1:2 2:3 3:5 5:7"/>
    </vehicle>
    <vehicle id="501" depart="200.40">
        <route edges="3:5 5:7"/>
    </vehicle>
    <vehicle id="503" depart="201.20">
        <route edges="7:5 5:3 3:2 2:1 1:0 0:8"/>
    </vehicle>
    <vehicle id="504" depart="201.60">
        <route edges="7:5 5:3 3:2 2:1 1:12 12:13"/>
    </vehicle>
    <vehicle id="505" depart="202.00">
        <route edges="19:18 18:3 3:2 2:1 1:0 0:10 10:11"/>
    </vehicle>
    <vehicle id="506" depart="202.40">
        <route edges="3:2 2:14 14:15"/>
    </vehicle>
    <vehicle id="509" depart="203.60">
        <route edges="4:0 0:1 1:2 2:3"/>
    </vehicle>
    <vehicle id="510" depart="204.00">
        <route edges="15:14 14:2 2:1 1:12 12:13"/>
    </vehicle>
    <vehicle id="511" depart="204.40">
        <route edges="15:14 14:2 2:1 1:0 0:4 4:6"/>
    </vehicle>
    <vehicle id="512" depart="204.80">
        <route edges="18:3 3:2 2:14"/>
    </vehicle>
    <vehicle id="513" depart="205.20">
        <route edges="13:12 12:1 1:2 2:3 3:16 16:17"/>
    </vehicle>
    <vehicle id="514" depart="205.60">
        <route edges="0:1 1:2 2:3 3:16 16:17"/>
    </vehicle>
    <vehicle id="515" depart="206.00">
        <route edges="9:8 8:0 0:1 1:2 2:3 3:16 16:17"/>
    </vehicle>
    <vehicle id="516" depart="206.40">
        <route edges="3:2 2:1 1:0 0:4"/>
    </vehicle>
    <vehicle id="519" depart="207.60">
        <route edges="16:3 3:2 2:1"/>
    </vehicle>
    <vehicle id="520" depart="208.00">
        <route edges="7:5 5:3 3:2 2:1 1:0 0:8 8:9"/>
    </vehicle>
    <vehicle id="526" depart="210.40">
        <route edges="0:8 8:9"/>
    </vehicle>
    <vehicle id="529" depart="211.60">
        <route edges="13:12 12:1 1:2 2:3 3:5 5:7"/>
    </vehicle>
    <vehicle id="530" depart="212.00">
        <route edges="15:14 14:2 2:3 3:18"/>
    </vehicle>
    <vehicle id="531" depart="212.40">
        <route edges="19:18 18:3 3:2"/>
    </vehicle>
    <vehicle id="532" depart="212.80">
        <route edges="19:18 18:3 3:5 5:7"/>
    </vehicle>
    <vehicle id="534" depart="213.60">
        <route edges="13:12 12:1 1:2 2:3 3:16 16:17"/>
    </vehicle>
    <vehicle id="535" depart="214.00">
        <route edges="15:14 14:2 2:1 1:0 0:4 4:6"/>
    </vehicle>
    <vehicle id="536" depart="214.40">
        <route edges="11:10 10:0 0:1 1:2 2:3 3:5 5:7"/>
    </vehicle>
    <vehicle id="537" depart="214.80">