<?xml version="1.0" encoding="UTF-8"?>

<!-- generated on Thu Oct 23 22:33:52 2014 by SUMO duarouter Version 0.18.0
<?xml version="1.0" encoding="UTF-8"?>

<configuration xmlns:xsi="http://www.w3.org/2001/XMLSchema-instance" xsi:noNamespaceSchemaLocation="http://sumo.sf.net/xsd/duarouterConfiguration.xsd">

    <input>
        <net-file value="corridor.net.xml"/>
        <trip-files value="experimentos/corridor.p0.1.8.trips.xml"/>
    </input>

    <output>
        <output-file value="experimentos/corridor.p0.1.8.rou.xml"/>
    </output>

    <processing>
        <ignore-errors value="true"/>
    </processing>

    <random_number>
        <random value="true"/>
    </random_number>

</configuration>
-->

<routes xmlns:xsi="http://www.w3.org/2001/XMLSchema-instance" xsi:noNamespaceSchemaLocation="http://sumo.sf.net/xsd/routes_file.xsd">
    <vehicle id="5" depart="0.50">
        <route edges="16:3 3:2 2:1 1:0"/>
    </vehicle>
    <vehicle id="7" depart="0.70">
        <route edges="5:3 3:2 2:1 1:0 0:4 4:6"/>
    </vehicle>
    <vehicle id="8" depart="0.80">
        <route edges="3:2 2:14 14:15"/>
    </vehicle>
    <vehicle id="9" depart="0.90">
        <route edges="6:4 4:0 0:1 1:12 12:13"/>
    </vehicle>
    <vehicle id="10" depart="1.00">
        <route edges="13:12 12:1 1:2 2:14"/>
    </vehicle>
    <vehicle id="11" depart="1.10">
        <route edges="0:10 10:11"/>
    </vehicle>
    <vehicle id="13" depart="1.30">
        <route edges="0:8"/>
    </vehicle>
    <vehicle id="14" depart="1.40">
        <route edges="6:4 4:0 0:1 1:2 2:14"/>
    </vehicle>
    <vehicle id="18" depart="1.80">
        <route edges="6:4 4:0 0:1 1:2 2:3 3:5 5:7"/>
    </vehicle>
    <vehicle id="20" depart="2.00">
        <route edges="7:5 5:3 3:2 2:14 14:15"/>
    </vehicle>
    <vehicle id="22" depart="2.20">
        <route edges="4:0 0:1 1:2 2:3 3:5 5:7"/>
    </vehicle>
    <vehicle id="23" depart="2.30">
        <route edges="7:5 5:3 3:2 2:14 14:15"/>
    </vehicle>
    <vehicle id="26" depart="2.60">
        <route edges="19:18 18:3 3:2 2:14 14:15"/>
    </vehicle>
    <vehicle id="28" depart="2.80">
        <route edges="9:8 8:0 0:1 1:2"/>
    </vehicle>
    <vehicle id="29" depart="2.90">
        <route edges="19:18 18:3 3:5 5:7"/>
    </vehicle>
    <vehicle id="30" depart="3.00">
        <route edges="3:2 2:1 1:0 0:4 4:6"/>
    </vehicle>
    <vehicle id="33" depart="3.30">
        <route edges="18:3 3:2 2:1 1:12 12:13"/>
    </vehicle>
    <vehicle id="34" depart="3.40">
        <route edges="1:2 2:3 3:16"/>
    </vehicle>
    <vehicle id="35" depart="3.50">
        <route edges="7:5 5:3 3:2 2:1 1:0 0:10 10:11"/>
    </vehicle>
    <vehicle id="38" depart="3.80">
        <route edges="19:18 18:3 3:2 2:1 1:12"/>
    </vehicle>
    <vehicle id="40" depart="4.00">
        <route edges="13:12 12:1 1:2 2:3 3:5"/>
    </vehicle>
    <vehicle id="45" depart="4.50">
        <route edges="7:5 5:3 3:18"/>
    </vehicle>
    <vehicle id="46" depart="4.60">
        <route edges="1:0 0:10"/>
    </vehicle>
    <vehicle id="48" depart="4.80">
        <route edges="17:16 16:3 3:2 2:1 1:12 12:13"/>
    </vehicle>
    <vehicle id="49" depart="4.90">
        <route edges="2:3 3:18"/>
    </vehicle>
    <vehicle id="50" depart="5.00">
        <route edges="6:4 4:0 0:8 8:9"/>
    </vehicle>
    <vehicle id="51" depart="5.10">
        <route edges="15:14 14:2 2:1 1:0 0:4 4:6"/>
    </vehicle>
    <vehicle id="52" depart="5.20">
        <route edges="3:5 5:7"/>
    </vehicle>
    <vehicle id="53" depart="5.30">
        <route edges="15:14 14:2 2:1 1:0 0:8"/>
    </vehicle>
    <vehicle id="54" depart="5.40">
        <route edges="7:5 5:3 3:2 2:1 1:12"/>
    </vehicle>
    <vehicle id="56" depart="5.60">
        <route edges="13:12 12:1 1:2 2:3 3:5"/>
    </vehicle>
    <vehicle id="57" depart="5.70">
        <route edges="15:14 14:2 2:1 1:0 0:4"/>
    </vehicle>
    <vehicle id="60" depart="6.00">
        <route edges="17:16 16:3 3:18 18:19"/>
    </vehicle>
    <vehicle id="64" depart="6.40">
        <route edges="13:12 12:1 1:2 2:3 3:16"/>
    </vehicle>
    <vehicle id="68" depart="6.80">
        <route edges="13:12 12:1 1:0 0:4 4:6"/>
    </vehicle>
    <vehicle id="71" depart="7.10">
        <route edges="11:10 10:0 0:1 1:2 2:3 3:18"/>
    </vehicle>
    <vehicle id="72" depart="7.20">
        <route edges="13:12 12:1 1:2 2:14 14:15"/>
    </vehicle>
    <vehicle id="73" depart="7.30">
        <route edges="6:4 4:0 0:8 8:9"/>
    </vehicle>
    <vehicle id="74" depart="7.40">
        <route edges="6:4 4:0 0:8"/>
    </vehicle>
    <vehicle id="76" depart="7.60">
        <route edges="3:2 2:1 1:0"/>
    </vehicle>
    <vehicle id="77" depart="7.70">
        <route edges="1:0 0:4 4:6"/>
    </vehicle>
    <vehicle id="78" depart="7.80">
        <route edges="13:12 12:1 1:2 2:14 14:15"/>
    </vehicle>
    <vehicle id="79" depart="7.90">
        <route edges="5:3 3:2 2:1 1:0 0:10"/>
    </vehicle>
    <vehicle id="82" depart="8.20">
        <route edges="9:8 8:0"/>
    </vehicle>
    <vehicle id="83" depart="8.30">
        <route edges="14:2 2:1 1:0 0:4 4:6"/>
    </vehicle>
    <vehicle id="84" depart="8.40">
        <route edges="1:0 0:8 8:9"/>
    </vehicle>
    <vehicle id="87" depart="8.70">
        <route edges="1:0 0:4"/>
    </vehicle>
    <vehicle id="88" depart="8.80">
        <route edges="3:2 2:1 1:0 0:8"/>
    </vehicle>
    <vehicle id="89" depart="8.90">
        <route edges="19:18 18:3 3:2 2:14 14:15"/>
    </vehicle>
    <vehicle id="90" depart="9.00">
        <route edges="11:10 10:0 0:1 1:2 2:3 3:16"/>
    </vehicle>
    <vehicle id="91" depart="9.10">
        <route edges="15:14 14:2 2:1 1:12 12:13"/>
    </vehicle>
    <vehicle id="92" depart="9.20">
        <route edges="4:0 0:10"/>
    </vehicle>
    <vehicle id="93" depart="9.30">
        <route edges="12:1 1:2 2:3 3:16"/>
    </vehicle>
    <vehicle id="95" depart="9.50">
        <route edges="15:14 14:2 2:3 3:16 16:17"/>
    </vehicle>
    <vehicle id="97" depart="9.70">
        <route edges="6:4 4:0"/>
    </vehicle>
    <vehicle id="98" depart="9.80">
        <route edges="7:5 5:3 3:2 2:1 1:0"/>
    </vehicle>
    <vehicle id="99" depart="9.90">
        <route edges="7:5 5:3 3:16 16:17"/>
    </vehicle>
    <vehicle id="100" depart="10.00">
        <route edges="7:5 5:3 3:2 2:1 1:0 0:4 4:6"/>
    </vehicle>
    <vehicle id="101" depart="10.10">
        <route edges="9:8 8:0 0:1 1:2 2:14"/>
    </vehicle>
    <vehicle id="104" depart="10.40">
        <route edges="6:4 4:0 0:1 1:2 2:3 3:5 5:7"/>
    </vehicle>
    <vehicle id="106" depart="10.60">
        <route edges="9:8 8:0 0:1 1:2 2:14 14:15"/>
    </vehicle>
    <vehicle id="107" depart="10.70">
        <route edges="19:18 18:3 3:2 2:1 1:12"/>
    </vehicle>
    <vehicle id="108" depart="10.80">
        <route edges="2:1 1:0 0:4 4:6"/>
    </vehicle>
    <vehicle id="110" depart="11.00">
        <route edges="3:2 2:1 1:0 0:4 4:6"/>
    </vehicle>
    <vehicle id="111" depart="11.10">
        <route edges="17:16 16:3 3:5 5:7"/>
    </vehicle>
    <vehicle id="121" depart="12.10">
        <route edges="11:10 10:0 0:1 1:2"/>
    </vehicle>
    <vehicle id="123" depart="12.30">
        <route edges="6:4 4:0 0:1 1:2 2:3 3:18 18:19"/>
    </vehicle>
    <vehicle id="124" depart="12.40">
        <route edges="13:12 12:1 1:0 0:10"/>
    </vehicle>
    <vehicle id="127" depart="12.70">
        <route edges="12:1 1:2 2:3 3:18 18:19"/>
    </vehicle>
    <vehicle id="128" depart="12.80">
        <route edges="13:12 12:1 1:0 0:8 8:9"/>
    </vehicle>
    <vehicle id="129" depart="12.90">
        <route edges="7:5 5:3 3:2 2:1 1:0 0:10 10:11"/>
    </vehicle>
    <vehicle id="130" depart="13.00">
        <route edges="15:14 14:2 2:3 3:5 5:7"/>
    </vehicle>
    <vehicle id="133" depart="13.30">
        <route edges="11:10 10:0 0:4 4:6"/>
    </vehicle>
    <vehicle id="134" depart="13.40">
        <route edges="11:10 10:0 0:4 4:6"/>
    </vehicle>
    <vehicle id="137" depart="13.70">
        <route edges="7:5 5:3 3:2 2:1 1:0"/>
    </vehicle>
    <vehicle id="141" depart="14.10">
        <route edges="17:16 16:3 3:2 2:1 1:0 0:8 8:9"/>
    </vehicle>
    <vehicle id="143" depart="14.30">
        <route edges="6:4 4:0 0:1 1:2"/>
    </vehicle>
    <vehicle id="144" depart="14.40">
        <route edges="2:1 1:0 0:8 8:9"/>
    </vehicle>
    <vehicle id="145" depart="14.50">
        <route edges="13:12 12:1 1:2 2:3 3:16 16:17"/>
    </vehicle>
    <vehicle id="146" depart="14.60">
        <route edges="6:4 4:0"/>
    </vehicle>
    <vehicle id="148" depart="14.80">
        <route edges="11:10 10:0 0:1 1:2 2:3"/>
    </vehicle>
    <vehicle id="149" depart="14.90">
        <route edges="18:3"/>
    </vehicle>
    <vehicle id="151" depart="15.10">
        <route edges="2:3 3:5"/>
    </vehicle>
    <vehicle id="153" depart="15.30">
        <route edges="13:12 12:1 1:2 2:3 3:18 18:19"/>
    </vehicle>
    <vehicle id="156" depart="15.60">
        <route edges="5:3 3:2 2:1 1:0 0:10"/>
    </vehicle>
    <vehicle id="157" depart="15.70">
        <route edges="2:3"/>
    </vehicle>
    <vehicle id="158" depart="15.80">
        <route edges="9:8 8:0 0:1 1:2 2:3 3:18 18:19"/>
    </vehicle>
    <vehicle id="161" depart="16.10">
        <route edges="19:18 18:3 3:2 2:1 1:0 0:10 10:11"/>
    </vehicle>
    <vehicle id="165" depart="16.50">
        <route edges="11:10 10:0 0:4"/>
    </vehicle>
    <vehicle id="166" depart="16.60">
        <route edges="6:4 4:0 0:1 1:2 2:14 14:15"/>
    </vehicle>
    <vehicle id="169" depart="16.90">
        <route edges="7:5 5:3 3:2 2:1 1:12"/>
    </vehicle>
    <vehicle id="170" depart="17.00">
        <route edges="9:8 8:0 0:1 1:2 2:3 3:18 18:19"/>
    </vehicle>
    <vehicle id="171" depart="17.10">
        <route edges="9:8 8:0 0:1 1:12 12:13"/>
    </vehicle>
    <vehicle id="175" depart="17.50">
        <route edges="14:2 2:1 1:0 0:4"/>
    </vehicle>
    <vehicle id="176" depart="17.60">
        <route edges="9:8 8:0 0:1 1:2 2:3"/>
    </vehicle>
    <vehicle id="177" depart="17.70">
        <route edges="7:5 5:3 3:2 2:1 1:0 0:8 8:9"/>
    </vehicle>
    <vehicle id="179" depart="17.90">
        <route edges="7:5 5:3"/>
    </vehicle>
    <vehicle id="180" depart="18.00">
        <route edges="9:8 8:0 0:1 1:2 2:3 3:18 18:19"/>
    </vehicle>
    <vehicle id="181" depart="18.10">
        <route edges="1:2 2:3 3:16"/>
    </vehicle>
    <vehicle id="183" depart="18.30">
        <route edges="15:14 14:2 2:1 1:12 12:13"/>
    </vehicle>
    <vehicle id="184" depart="18.40">
        <route edges="15:14 14:2 2:1 1:0 0:4 4:6"/>
    </vehicle>
    <vehicle id="185" depart="18.50">
        <route edges="13:12 12:1 1:2 2:3 3:5 5:7"/>
    </vehicle>
    <vehicle id="186" depart="18.60">
        <route edges="9:8 8:0 0:1 1:2 2:14 14:15"/>
    </vehicle>
    <vehicle id="187" depart="18.70">
        <route edges="3:2 2:1 1:12 12:13"/>
    </vehicle>
    <vehicle id="189" depart="18.90">
        <route edges="9:8 8:0 0:1 1:2 2:3 3:5 5:7"/>
    </vehicle>
    <vehicle id="190" depart="19.00">
        <route edges="6:4 4:0 0:1 1:2 2:3 3:5 5:7"/>
    </vehicle>
    <vehicle id="191" depart="19.10">
        <route edges="14:2 2:1 1:0 0:10 10:11"/>
    </vehicle>
    <vehicle id="194" depart="19.40">
        <route edges="17:16 16:3 3:18"/>
    </vehicle>
    <vehicle id="198" depart="19.80">
        <route edges="9:8 8:0 0:1 1:2 2:3 3:5 5:7"/>
    </vehicle>
    <vehicle id="200" depart="20.00">
        <route edges="12:1 1:2 2:3 3:18 18:19"/>
    </vehicle>
    <vehicle id="201" depart="20.10">
        <route edges="3:2 2:1 1:0 0:4 4:6"/>
    </vehicle>
    <vehicle id="203" depart="20.30">
        <route edges="19:18 18:3 3:2 2:1 1:0 0:4 4:6"/>
    </vehicle>
    <vehicle id="207" depart="20.70">
        <route edges="5:3 3:2 2:1 1:0 0:8 8:9"/>
    </vehicle>
    <vehicle id="208" depart="20.80">
        <route edges="7:5 5:3 3:2 2:1 1:0 0:10 10:11"/>
    </vehicle>
    <vehicle id="209" depart="20.90">
        <route edges="3:16"/>
    </vehicle>
    <vehicle id="210" depart="21.00">
        <route edges="15:14 14:2 2:1 1:0 0:10 10:11"/>
    </vehicle>
    <vehicle id="213" depart="21.30">
        <route edges="7:5 5:3 3:16 16:17"/>
    </vehicle>
    <vehicle id="215" depart="21.50">
        <route edges="17:16 16:3 3:2 2:1 1:12 12:13"/>
    </vehicle>
    <vehicle id="219" depart="21.90">
        <route edges="17:16 16:3 3:5 5:7"/>
    </vehicle>
    <vehicle id="225" depart="22.50">
        <route edges="13:12 12:1 1:0 0:4"/>
    </vehicle>
    <vehicle id="226" depart="22.60">
        <route edges="9:8 8:0 0:1 1:2 2:3 3:5 5:7"/>
    </vehicle>
    <vehicle id="228" depart="22.80">
        <route edges="17:16 16:3 3:5 5:7"/>
    </vehicle>
    <vehicle id="230" depart="23.00">
        <route edges="8:0 0:10"/>
    </vehicle>
    <vehicle id="232" depart="23.20">
        <route edges="14:2 2:3 3:16 16:17"/>
    </vehicle>
    <vehicle id="235" depart="23.50">
        <route edges="7:5 5:3 3:2 2:14 14:15"/>
    </vehicle>
    <vehicle id="236" depart="23.60">
        <route edges="12:1 1:2 2:14 14:15"/>
    </vehicle>
    <vehicle id="237" depart="23.70">
        <route edges="11:10 10:0 0:4 4:6"/>
    </vehicle>
    <vehicle id="238" depart="23.80">
        <route edges="6:4 4:0 0:1 1:2 2:3"/>
    </vehicle>
    <vehicle id="241" depart="24.10">
        <route edges="11:10 10:0 0:1 1:2 2:3 3:18 18:19"/>
    </vehicle>
    <vehicle id="243" depart="24.30">
        <route edges="6:4 4:0 0:1 1:2 2:3 3:5 5:7"/>
    </vehicle>
    <vehicle id="246" depart="24.60">
        <route edges="15:14 14:2 2:1 1:0 0:4 4:6"/>
    </vehicle>
    <vehicle id="247" depart="24.70">
        <route edges="7:5 5:3 3:18 18:19"/>
    </vehicle>
    <vehicle id="248" depart="24.80">
        <route edges="16:3 3:2 2:1 1:12 12:13"/>
    </vehicle>
    <vehicle id="251" depart="25.10">
        <route edges="17:16 16:3 3:2 2:1 1:0 0:10 10:11"/>
    </vehicle>
    <vehicle id="252" depart="25.20">
        <route edges="10:0 0:1 1:2 2:3"/>
    </vehicle>
    <vehicle id="255" depart="25.50">
        <route edges="7:5 5:3 3:18"/>
    </vehicle>
    <vehicle id="256" depart="25.60">
        <route edges="2:1 1:0 0:8"/>
    </vehicle>
    <vehicle id="258" depart="25.80">
        <route edges="7:5 5:3 3:2 2:14 14:15"/>
    </vehicle>
    <vehicle id="259" depart="25.90">
        <route edges="4:0 0:8 8:9"/>
    </vehicle>
    <vehicle id="261" depart="26.10">
        <route edges="17:16 16:3 3:5 5:7"/>
    </vehicle>
    <vehicle id="267" depart="26.70">
        <route edges="14:2 2:3 3:18 18:19"/>
    </vehicle>
    <vehicle id="272" depart="27.20">
        <route edges="7:5 5:3 3:2"/>
    </vehicle>
    <vehicle id="273" depart="27.30">
        <route edges="5:3 3:2 2:1 1:0 0:4 4:6"/>
    </vehicle>
    <vehicle id="274" depart="27.40">
        <route edges="2:3 3:5 5:7"/>
    </vehicle>
    <vehicle id="275" depart="27.50">
        <route edges="2:3 3:5 5:7"/>
    </vehicle>
    <vehicle id="277" depart="27.70">
        <route edges="6:4 4:0 0:1 1:2 2:3 3:5 5:7"/>
    </vehicle>
    <vehicle id="278" depart="27.80">
        <route edges="19:18 18:3 3:5"/>
    </vehicle>
    <vehicle id="279" depart="27.90">
        <route edges="7:5 5:3 3:2 2:14"/>
    </vehicle>
    <vehicle id="280" depart="28.00">
        <route edges="6:4 4:0 0:1 1:2 2:3 3:18 18:19"/>
    </vehicle>
    <vehicle id="281" depart="28.10">
        <route edges="6:4 4:0 0:1 1:2"/>
    </vehicle>
    <vehicle id="282" depart="28.20">
        <route edges="18:3 3:5 5:7"/>
    </vehicle>
    <vehicle id="284" depart="28.40">
        <route edges="15:14 14:2 2:1 1:12 12:13"/>
    </vehicle>
    <vehicle id="288" depart="28.80">
        <route edges="15:14 14:2 2:1 1:0 0:4 4:6"/>
    </vehicle>
    <vehicle id="289" depart="28.90">
        <route edges="17:16 16:3 3:2 2:1 1:0 0:8"/>
    </vehicle>
    <vehicle id="292" depart="29.20">
        <route edges="19:18 18:3 3:2 2:1 1:12 12:13"/>
    </vehicle>
    <vehicle id="294" depart="29.40">
        <route edges="19:18 18:3 3:2 2:1"/>
    </vehicle>
    <vehicle id="295" depart="29.50">
        <route edges="7:5 5:3 3:2 2:1"/>
    </vehicle>
    <vehicle id="296" depart="29.60">
        <route edges="15:14 14:2 2:3 3:16 16:17"/>
    </vehicle>
    <vehicle id="297" depart="29.70">
        <route edges="9:8 8:0 0:1 1:2 2:3 3:5"/>
    </vehicle>
    <vehicle id="298" depart="29.80">
        <route edges="19:18 18:3 3:5"/>
    </vehicle>
    <vehicle id="300" depart="30.00">
        <route edges="9:8 8:0 0:1 1:2 2:3 3:16 16:17"/>
    </vehicle>
    <vehicle id="303" depart="30.30">
        <route edges="8:0 0:4 4:6"/>
    </vehicle>
    <vehicle id="304" depart="30.40">
        <route edges="4:0 0:1 1:2 2:3 3:5 5:7"/>
    </vehicle>
    <vehicle id="306" depart="30.60">
        <route edges="16:3 3:2 2:1 1:12"/>
    </vehicle>
    <vehicle id="309" depart="30.90">
        <route edges="12:1 1:2 2:14 14:15"/>
    </vehicle>
    <vehicle id="310" depart="31.00">
        <route edges="9:8 8:0 0:4"/>
    </vehicle>
    <vehicle id="311" depart="31.10">
        <route edges="19:18 18:3 3:2 2:1 1:0 0:10 10:11"/>
    </vehicle>
    <vehicle id="312" depart="31.20">
        <route edges="3:18 18:19"/>
    </vehicle>
    <vehicle id="314" depart="31.40">
        <route edges="4:0 0:1 1:2 2:3"/>
    </vehicle>
    <vehicle id="315" depart="31.50">
        <route edges="18:3 3:2 2:1 1:0 0:8 8:9"/>
    </vehicle>
    <vehicle id="317" depart="31.70">
        <route edges="5:3 3:2 2:1 1:0 0:10 10:11"/>
    </vehicle>
    <vehicle id="319" depart="31.90">
        <route edges="15:14 14:2 2:1 1:0 0:10 10:11"/>
    </vehicle>
    <vehicle id="323" depart="32.30">
        <route edges="19:18 18:3 3:2 2:1"/>
    </vehicle>
    <vehicle id="324" depart="32.40">
        <route edges="7:5 5:3 3:2 2:1 1:0 0:8 8:9"/>
    </vehicle>
    <vehicle id="327" depart="32.70">
        <route edges="1:0 0:4 4:6"/>
    </vehicle>
    <vehicle id="329" depart="32.90">
        <route edges="5:3 3:2 2:1 1:0 0:8 8:9"/>
    </vehicle>
    <vehicle id="330" depart="33.00">
        <route edges="8:0 0:1 1:12 12:13"/>
    </vehicle>
    <vehicle id="332" depart="33.20">
        <route edges="2:3 3:5 5:7"/>
    </vehicle>
    <vehicle id="337" depart="33.70">
        <route edges="17:16 16:3 3:5 5:7"/>
    </vehicle>
    <vehicle id="339" depart="33.90">
        <route edges="2:1 1:0 0:10 10:11"/>
    </vehicle>
    <vehicle id="340" depart="34.00">
        <route edges="9:8 8:0 0:1 1:2 2:3 3:5 5:7"/>
    </vehicle>
    <vehicle id="341" depart="34.10">
        <route edges="6:4 4:0 0:1 1:2 2:3 3:5 5:7"/>
    </vehicle>
    <vehicle id="344" depart="34.40">
        <route edges="6:4 4:0 0:1 1:2 2:3 3:16 16:17"/>
    </vehicle>
    <vehicle id="346" depart="34.60">
        <route edges="17:16 16:3 3:5 5:7"/>
    </vehicle>
    <vehicle id="347" depart="34.70">
        <route edges="9:8 8:0 0:4 4:6"/>
    </vehicle>
    <vehicle id="350" depart="35.00">
        <route edges="10:0"/>
    </vehicle>
    <vehicle id="351" depart="35.10">
        <route edges="15:14 14:2 2:1 1:0 0:8 8:9"/>
    </vehicle>
    <vehicle id="352" depart="35.20">
        <route edges="19:18 18:3 3:5 5:7"/>
    </vehicle>
    <vehicle id="353" depart="35.30">
        <route edges="14:2 2:1 1:12 12:13"/>
    </vehicle>
    <vehicle id="354" depart="35.40">
        <route edges="10:0 0:1 1:2 2:3 3:16 16:17"/>
    </vehicle>
    <vehicle id="355" depart="35.50">
        <route edges="15:14 14:2 2:1 1:12 12:13"/>
    </vehicle>
    <vehicle id="356" depart="35.60">
        <route edges="6:4 4:0 0:10 10:11"/>
    </vehicle>
    <vehicle id="359" depart="35.90">
        <route edges="16:3 3:5 5:7"/>
    </vehicle>
    <vehicle id="362" depart="36.20">
        <route edges="0:1 1:2 2:3 3:18 18:19"/>
    </vehicle>
    <vehicle id="366" depart="36.60">
        <route edges="15:14 14:2 2:3"/>
    </vehicle>
    <vehicle id="367" depart="36.70">
        <route edges="9:8 8:0 0:4 4:6"/>
    </vehicle>
    <vehicle id="369" depart="36.90">
        <route edges="5:3 3:16 16:17"/>
    </vehicle>
    <vehicle id="370" depart="37.00">
        <route edges="9:8 8:0 0:1 1:2 2:3 3:18 18:19"/>
    </vehicle>
    <vehicle id="374" depart="37.40">
        <route edges="2:1 1:0 0:8"/>
    </vehicle>
    <vehicle id="378" depart="37.80">
        <route edges="13:12 12:1 1:0 0:8 8:9"/>
    </vehicle>
    <vehicle id="379" depart="37.90">
        <route edges="3:2"/>
    </vehicle>
    <vehicle id="380" depart="38.00">
        <route edges="1:2 2:14 14:15"/>
    </vehicle>
    <vehicle id="381" depart="38.10">
        <route edges="17:16 16:3 3:18 18:19"/>
    </vehicle>
    <vehicle id="382" depart="38.20">
        <route edges="8:0 0:4 4:6"/>
    </vehicle>
    <vehicle id="383" depart="38.30">
        <route edges="3:2 2:1 1:0 0:8"/>
    </vehicle>
    <vehicle id="385" depart="38.50">
        <route edges="18:3"/>
    </vehicle>
    <vehicle id="392" depart="39.20">
        <route edges="6:4 4:0 0:1 1:2 2:14 14:15"/>
    </vehicle>
    <vehicle id="393" depart="39.30">
        <route edges="4:0 0:1 1:12"/>
    </vehicle>
    <vehicle id="396" depart="39.60">
        <route edges="8:0 0:1 1:2 2:3 3:18"/>
    </vehicle>
    <vehicle id="399" depart="39.90">
        <route edges="11:10 10:0 0:1 1:12"/>
    </vehicle>
    <vehicle id="400" depart="40.00">
        <route edges="7:5 5:3 3:16 16:17"/>
    </vehicle>
    <vehicle id="401" depart="40.10">
        <route edges="6:4 4:0 0:1 1:2 2:3 3:5 5:7"/>
    </vehicle>
    <vehicle id="402" depart="40.20">
        <route edges="6:4 4:0 0:1 1:2 2:14 14:15"/>
    </vehicle>
    <vehicle id="403" depart="40.30">
        <route edges="7:5 5:3"/>
    </vehicle>
    <vehicle id="404" depart="40.40">
        <route edges="5:3 3:2"/>
    </vehicle>
    <vehicle id="406" depart="40.60">
        <route edges="6:4 4:0 0:1 1:12"/>
    </vehicle>
    <vehicle id="408" depart="40.80">
        <route edges="19:18 18:3 3:5 5:7"/>
    </vehicle>
    <vehicle id="409" depart="40.90">
        <route edges="8:0 0:1 1:2 2:3"/>
    </vehicle>
    <vehicle id="410" depart="41.00">
        <route edges="18:3 3:5 5:7"/>
    </vehicle>
    <vehicle id="413" depart="41.30">
        <route edges="17:16 16:3 3:2 2:1 1:12 12:13"/>
    </vehicle>
    <vehicle id="414" depart="41.40">
        <route edges="19:18 18:3"/>
    </vehicle>
    <vehicle id="415" depart="41.50">
        <route edges="13:12 12:1 1:2 2:3 3:5 5:7"/>
    </vehicle>
    <vehicle id="418" depart="41.80">
        <route edges="7:5 5:3 3:2 2:1 1:12"/>
    </vehicle>
    <vehicle id="419" depart="41.90">
        <route edges="9:8 8:0 0:1 1:2"/>
    </vehicle>
    <vehicle id="423" depart="42.30">
        <route edges="7:5 5:3 3:2 2:1 1:12"/>
    </vehicle>
    <vehicle id="424" depart="42.40">
        <route edges="15:14 14:2 2:3 3:18 18:19"/>
    </vehicle>
    <vehicle id="425" depart="42.50">
        <route edges="12:1 1:0 0:10 10:11"/>
    </vehicle>
    <vehicle id="427" depart="42.70">
        <route edges="9:8 8:0 0:1 1:2 2:3 3:5"/>
    </vehicle>
    <vehicle id="428" depart="42.80">
        <route edges="5:3 3:2 2:1 1:12 12:13"/>
    </vehicle>
    <vehicle id="429" depart="42.90">
        <route edges="9:8 8:0 0:1 1:2 2:14 14:15"/>
    </vehicle>
    <vehicle id="434" depart="43.40">
        <route edges="16:3"/>
    </vehicle>
    <vehicle id="436" depart="43.60">
        <route edges="9:8 8:0 0:1 1:2 2:3 3:5 5:7"/>
    </vehicle>
    <vehicle id="438" depart="43.80">
        <route edges="13:12 12:1 1:2 2:3"/>
    </vehicle>
    <vehicle id="443" depart="44.30">
        <route edges="3:2 2:1 1:0 0:8 8:9"/>
    </vehicle>
    <vehicle id="444" depart="44.40">
        <route edges="9:8 8:0 0:4 4:6"/>
    </vehicle>
    <vehicle id="448" depart="44.80">
        <route edges="7:5 5:3 3:18 18:19"/>
    </vehicle>
    <vehicle id="449" depart="44.90">
        <route edges="3:16 16:17"/>
    </vehicle>
    <vehicle id="454" depart="45.40">
        <route edges="1:2 2:3 3:5 5:7"/>
    </vehicle>
    <vehicle id="455" depart="45.50">
        <route edges="13:12 12:1 1:2 2:14 14:15"/>
    </vehicle>
    <vehicle id="457" depart="45.70">
        <route edges="5:3 3:16 16:17"/>
    </vehicle>
    <vehicle id="458" depart="45.80">
        <route edges="13:12 12:1 1:0 0:10"/>
    </vehicle>
    <vehicle id="460" depart="46.00">
        <route edges="9:8 8:0 0:1 1:2 2:3 3:5"/>
    </vehicle>
    <vehicle id="461" depart="46.10">
        <route edges="4:0 0:1 1:12"/>
    </vehicle>
    <vehicle id="462" depart="46.20">
        <route edges="8:0 0:1 1:2 2:14 14:15"/>
    </vehicle>
    <vehicle id="463" depart="46.30">
        <route edges="13:12 12:1 1:2 2:3 3:5 5:7"/>
    </vehicle>
    <vehicle id="464" depart="46.40">
        <route edges="0:1 1:2 2:3 3:16 16:17"/>
    </vehicle>
    <vehicle id="468" depart="46.80">
        <route edges="6:4 4:0 0:8 8:9"/>
    </vehicle>
    <vehicle id="469" depart="46.90">
        <route edges="9:8 8:0 0:1 1:2 2:3 3:5 5:7"/>
    </vehicle>
    <vehicle id="471" depart="47.10">
        <route edges="19:18 18:3 3:2 2:1 1:12 12:13"/>
    </vehicle>
    <vehicle id="472" depart="47.20">
        <route edges="10:0 0:8"/>
    </vehicle>
    <vehicle id="473" depart="47.30">
        <route edges="6:4 4:0"/>
    </vehicle>
    <vehicle id="475" depart="47.50">
        <route edges="13:12 12:1 1:2 2:3 3:5 5:7"/>
    </vehicle>
    <vehicle id="476" depart="47.60">
        <route edges="6:4 4:0 0:1 1:2 2:3 3:5 5:7"/>
    </vehicle>
    <vehicle id="477" depart="47.70">
        <route edges="2:3 3:5"/>
    </vehicle>
    <vehicle id="478" depart="47.80">
        <route edges="4:0 0:1 1:2 2:3 3:18 18:19"/>
    </vehicle>
    <vehicle id="482" depart="48.20">
        <route edges="11:10 10:0 0:1 1:2 2:14 14:15"/>
    </vehicle>
    <vehicle id="483" depart="48.30">
        <route edges="17:16 16:3 3:2 2:1 1:0 0:4 4:6"/>
    </vehicle>
    <vehicle id="484" depart="48.40">
        <route edges="7:5 5:3 3:2 2:14"/>
    </vehicle>
    <vehicle id="485" depart="48.50">
        <route edges="4:0 0:1 1:2 2:3 3:5 5:7"/>
    </vehicle>
    <vehicle id="486" depart="48.60">
        <route edges="9:8 8:0 0:10 10:11"/>
    </vehicle>
    <vehicle id="487" depart="48.70">
        <route edges="6:4 4:0 0:8 8:9"/>
    </vehicle>
    <vehicle id="489" depart="48.90">
        <route edges="19:18 18:3 3:2 2:1 1:0 0:4 4:6"/>
    </vehicle>
    <vehicle id="490" depart="49.00">
        <route edges="7:5 5:3 3:2 2:1 1:0 0:8 8:9"/>
    </vehicle>
    <vehicle id="491" depart="49.10">
        <route edges="9:8 8:0 0:1 1:2 2:3 3:5"/>
    </vehicle>
    <vehicle id="495" depart="49.50">
        <route edges="15:14 14:2 2:1 1:0 0:8 8:9"/>
    </vehicle>
    <vehicle id="496" depart="49.60">
        <route edges="12:1 1:2 2:3 3:18 18:19"/>
    </vehicle>
    <vehicle id="497" depart="49.70">
        <route edges="6:4 4:0 0:1 1:2 2:3 3:16 16:17"/>
    </vehicle>
    <vehicle id="498" depart="49.80">
        <route edges="6:4 4:0 0:1 1:2 2:3 3:5 5:7"/>
    </vehicle>
    <vehicle id="501" depart="50.10">
        <route edges="6:4 4:0 0:1 1:2 2:3 3:18 18:19"/>
    </vehicle>
    <vehicle id="504" depart="50.40">
        <route edges="11:10 10:0 0:1"/>
    </vehicle>
    <vehicle id="505" depart="50.50">
        <route edges="3:2 2:1 1:0 0:8 8:9"/>
    </vehicle>
    <vehicle id="507" depart="50.70">
        <route edges="15:14 14:2 2:1 1:0"/>
    </vehicle>
    <vehicle id="511" depart="51.10">
        <route edges="10:0 0:4"/>
    </vehicle>
    <vehicle id="512" depart="51.20">
        <route edges="6:4 4:0 0:1 1:2 2:3"/>
    </vehicle>
    <vehicle id="515" depart="51.50">
        <route edges="0:1 1:2 2:3"/>
    </vehicle>
    <vehicle id="517" depart="51.70">
        <route edges="11:10 10:0 0:1 1:2 2:3 3:5 5:7"/>
    </vehicle>
    <vehicle id="518" depart="51.80">
        <route edges="10:0 0:4"/>
    </vehicle>
    <vehicle id="521" depart="52.10">
        <route edges="11:10 10:0 0:1 1:2 2:3"/>
    </vehicle>
    <vehicle id="523" depart="52.30">
        <route edges="6:4 4:0 0:1 1:2 2:3 3:18 18:19"/>
    </vehicle>
    <vehicle id="524" depart="52.40">
        <route edges="17:16 16:3 3:5 5:7"/>
    </vehicle>
    <vehicle id="525" depart="52.50">
        <route edges="3:5 5:7"/>
    </vehicle>
    <vehicle id="526" depart="52.60">
        <route edges="13:12 12:1 1:2 2:3 3:5 5:7"/>
    </vehicle>
    <vehicle id="527" depart="52.70">
        <route edges="15:14 14:2 2:1 1:0 0:4 4:6"/>
    </vehicle>
    <vehicle id="528" depart="52.80">
        <route edges="6:4 4:0 0:10"/>
    </vehicle>
    <vehicle id="529" depart="52.90">
        <route edges="19:18 18:3 3:5 5:7"/>
    </vehicle>
    <vehicle id="534" depart="53.40">
        <route edges="0:1 1:2 2:3 3:16 16:17"/>
    </vehicle>
    <vehicle id="537" depart="53.70">
        <route edges="14:2 2:1 1:0 0:4 4:6"/>
    </vehicle>
    <vehicle id="538" depart="53.80">
        <route edges="15:14 14:2 2:1 1:0 0:4 4:6"/>
    </vehicle>
    <vehicle id="541" depart="54.10">
        <route edges="15:14 14:2 2:1 1:0 0:8"/>
    </vehicle>
    <vehicle id="542" depart="54.20">
        <route edges="13:12 12:1 1:2 2:3 3:18 18:19"/>
    </vehicle>
    <vehicle id="543" depart="54.30">
        <route edges="1:0 0:8 8:9"/>
    </vehicle>
    <vehicle id="548" depart="54.80">
        <route edges="9:8 8:0 0:1 1:2 2:3 3:18 18:19"/>
    </vehicle>
    <vehicle id="549" depart="54.90">
        <route edges="9:8 8:0 0:1 1:12 12:13"/>
    </vehicle>
    <vehicle id="551" depart="55.10">
        <route edges="15:14 14:2 2:3"/>
    </vehicle>
    <vehicle id="552" depart="55.20">
        <route edges="11:10 10:0 0:4 4:6"/>
    </vehicle>
    <vehicle id="553" depart="55.30">
        <route edges="7:5 5:3 3:16 16:17"/>
    </vehicle>
    <vehicle id="554" depart="55.40">