<?xml version="1.0" encoding="UTF-8"?>

<!-- generated on Thu Oct 23 22:34:03 2014 by SUMO duarouter Version 0.18.0
<?xml version="1.0" encoding="UTF-8"?>

<configuration xmlns:xsi="http://www.w3.org/2001/XMLSchema-instance" xsi:noNamespaceSchemaLocation="http://sumo.sf.net/xsd/duarouterConfiguration.xsd">

    <input>
        <net-file value="corridor.net.xml"/>
        <trip-files value="experimentos/corridor.p0.1.10.trips.xml"/>
    </input>

    <output>
        <output-file value="experimentos/corridor.p0.1.10.rou.xml"/>
    </output>

    <processing>
        <ignore-errors value="true"/>
    </processing>

    <random_number>
        <random value="true"/>
    </random_number>

</configuration>
-->

<routes xmlns:xsi="http://www.w3.org/2001/XMLSchema-instance" xsi:noNamespaceSchemaLocation="http://sumo.sf.net/xsd/routes_file.xsd">
    <vehicle id="0" depart="0.00">
        <route edges="17:16 16:3 3:2 2:1 1:0 0:10 10:11"/>
    </vehicle>
    <vehicle id="1" depart="0.10">
        <route edges="19:18 18:3 3:2"/>
    </vehicle>
    <vehicle id="2" depart="0.20">
        <route edges="11:10 10:0 0:1 1:2"/>
    </vehicle>
    <vehicle id="4" depart="0.40">
        <route edges="17:16 16:3 3:18 18:19"/>
    </vehicle>
    <vehicle id="5" depart="0.50">
        <route edges="19:18 18:3 3:5 5:7"/>
    </vehicle>
    <vehicle id="6" depart="0.60">
        <route edges="7:5 5:3 3:2 2:1 1:0 0:8 8:9"/>
    </vehicle>
    <vehicle id="7" depart="0.70">
        <route edges="15:14 14:2 2:3 3:18 18:19"/>
    </vehicle>
    <vehicle id="8" depart="0.80">
        <route edges="5:3 3:2"/>
    </vehicle>
    <vehicle id="10" depart="1.00">
        <route edges="11:10 10:0 0:1 1:2 2:3 3:18 18:19"/>
    </vehicle>
    <vehicle id="11" depart="1.10">
        <route edges="19:18 18:3 3:2 2:1"/>
    </vehicle>
    <vehicle id="12" depart="1.20">
        <route edges="0:1 1:2 2:3 3:18 18:19"/>
    </vehicle>
    <vehicle id="13" depart="1.30">
        <route edges="4:0 0:1 1:2 2:3 3:16 16:17"/>
    </vehicle>
    <vehicle id="16" depart="1.60">
        <route edges="19:18 18:3 3:2 2:14 14:15"/>
    </vehicle>
    <vehicle id="17" depart="1.70">
        <route edges="7:5 5:3 3:2 2:1 1:12"/>
    </vehicle>
    <vehicle id="20" depart="2.00">
        <route edges="13:12 12:1 1:2 2:3 3:5 5:7"/>
    </vehicle>
    <vehicle id="21" depart="2.10">
        <route edges="6:4 4:0 0:8 8:9"/>
    </vehicle>
    <vehicle id="22" depart="2.20">
        <route edges="8:0 0:1 1:2 2:3 3:5"/>
    </vehicle>
    <vehicle id="27" depart="2.70">
        <route edges="14:2 2:1 1:0 0:8 8:9"/>
    </vehicle>
    <vehicle id="28" depart="2.80">
        <route edges="7:5 5:3 3:2 2:1 1:0 0:4"/>
    </vehicle>
    <vehicle id="33" depart="3.30">
        <route edges="0:10 10:11"/>
    </vehicle>
    <vehicle id="36" depart="3.60">
        <route edges="1:12 12:13"/>
    </vehicle>
    <vehicle id="37" depart="3.70">
        <route edges="0:4"/>
    </vehicle>
    <vehicle id="38" depart="3.80">
        <route edges="3:5 5:7"/>
    </vehicle>
    <vehicle id="39" depart="3.90">
        <route edges="11:10 10:0 0:8 8:9"/>
    </vehicle>
    <vehicle id="41" depart="4.10">
        <route edges="11:10 10:0 0:1 1:2 2:3"/>
    </vehicle>
    <vehicle id="42" depart="4.20">
        <route edges="13:12 12:1 1:0 0:4"/>
    </vehicle>
    <vehicle id="44" depart="4.40">
        <route edges="11:10 10:0 0:4 4:6"/>
    </vehicle>
    <vehicle id="46" depart="4.60">
        <route edges="7:5 5:3 3:2 2:1 1:0 0:4 4:6"/>
    </vehicle>
    <vehicle id="48" depart="4.80">
        <route edges="9:8 8:0 0:1 1:2 2:14 14:15"/>
    </vehicle>
    <vehicle id="52" depart="5.20">
        <route edges="11:10 10:0 0:4 4:6"/>
    </vehicle>
    <vehicle id="53" depart="5.30">
        <route edges="19:18 18:3 3:5 5:7"/>
    </vehicle>
    <vehicle id="54" depart="5.40">
        <route edges="3:2 2:1 1:12 12:13"/>
    </vehicle>
    <vehicle id="56" depart="5.60">
        <route edges="6:4 4:0 0:1 1:2 2:3 3:16 16:17"/>
    </vehicle>
    <vehicle id="57" depart="5.70">
        <route edges="19:18 18:3 3:2"/>
    </vehicle>
    <vehicle id="58" depart="5.80">
        <route edges="10:0 0:1 1:2 2:3"/>
    </vehicle>
    <vehicle id="60" depart="6.00">
        <route edges="19:18 18:3 3:2 2:14 14:15"/>
    </vehicle>
    <vehicle id="61" depart="6.10">
        <route edges="6:4 4:0 0:1 1:2 2:14"/>
    </vehicle>
    <vehicle id="62" depart="6.20">
        <route edges="5:3 3:2 2:1 1:0 0:8"/>
    </vehicle>
    <vehicle id="66" depart="6.60">
        <route edges="13:12 12:1 1:2 2:14 14:15"/>
    </vehicle>
    <vehicle id="68" depart="6.80">
        <route edges="7:5 5:3 3:2 2:1 1:12 12:13"/>
    </vehicle>
    <vehicle id="71" depart="7.10">
        <route edges="11:10 10:0 0:8 8:9"/>
    </vehicle>
    <vehicle id="73" depart="7.30">
        <route edges="19:18 18:3 3:5 5:7"/>
    </vehicle>
    <vehicle id="74" depart="7.40">
        <route edges="13:12 12:1 1:2 2:3 3:5 5:7"/>
    </vehicle>
    <vehicle id="76" depart="7.60">
        <route edges="3:2 2:1 1:0 0:10 10:11"/>
    </vehicle>
    <vehicle id="77" depart="7.70">
        <route edges="9:8 8:0 0:1 1:2 2:3 3:5 5:7"/>
    </vehicle>
    <vehicle id="78" depart="7.80">
        <route edges="14:2 2:1"/>
    </vehicle>
    <vehicle id="79" depart="7.90">
        <route edges="10:0 0:1 1:2 2:3 3:5 5:7"/>
    </vehicle>
    <vehicle id="80" depart="8.00">
        <route edges="11:10 10:0 0:1 1:2 2:3 3:16 16:17"/>
    </vehicle>
    <vehicle id="84" depart="8.40">
        <route edges="13:12 12:1 1:2 2:3 3:5 5:7"/>
    </vehicle>
    <vehicle id="85" depart="8.50">
        <route edges="11:10 10:0 0:1 1:2 2:14 14:15"/>
    </vehicle>
    <vehicle id="87" depart="8.70">
        <route edges="9:8 8:0 0:4 4:6"/>
    </vehicle>
    <vehicle id="88" depart="8.80">
        <route edges="14:2 2:3 3:18 18:19"/>
    </vehicle>
    <vehicle id="92" depart="9.20">
        <route edges="13:12 12:1 1:2 2:3"/>
    </vehicle>
    <vehicle id="93" depart="9.30">
        <route edges="10:0 0:1 1:2 2:3"/>
    </vehicle>
    <vehicle id="95" depart="9.50">
        <route edges="7:5 5:3 3:16 16:17"/>
    </vehicle>
    <vehicle id="97" depart="9.70">
        <route edges="3:5"/>
    </vehicle>
    <vehicle id="100" depart="10.00">
        <route edges="15:14 14:2 2:3 3:5 5:7"/>
    </vehicle>
    <vehicle id="101" depart="10.10">
        <route edges="4:0"/>
    </vehicle>
    <vehicle id="105" depart="10.50">
        <route edges="17:16 16:3 3:2 2:1 1:0 0:8 8:9"/>
    </vehicle>
    <vehicle id="106" depart="10.60">
        <route edges="5:3 3:2 2:1 1:12"/>
    </vehicle>
    <vehicle id="107" depart="10.70">
        <route edges="17:16 16:3 3:2 2:1 1:12 12:13"/>
    </vehicle>
    <vehicle id="108" depart="10.80">
        <route edges="7:5 5:3 3:2 2:1 1:0 0:4 4:6"/>
    </vehicle>
    <vehicle id="110" depart="11.00">
        <route edges="14:2 2:1"/>
    </vehicle>
    <vehicle id="112" depart="11.20">
        <route edges="7:5 5:3"/>
    </vehicle>
    <vehicle id="113" depart="11.30">
        <route edges="10:0 0:1 1:2 2:14 14:15"/>
    </vehicle>
    <vehicle id="114" depart="11.40">
        <route edges="3:2 2:1 1:0 0:10"/>
    </vehicle>
    <vehicle id="116" depart="11.60">
        <route edges="6:4 4:0 0:1 1:2 2:14 14:15"/>
    </vehicle>
    <vehicle id="117" depart="11.70">
        <route edges="12:1 1:2 2:3 3:5"/>
    </vehicle>
    <vehicle id="120" depart="12.00">
        <route edges="11:10 10:0 0:8"/>
    </vehicle>
    <vehicle id="121" depart="12.10">
        <route edges="7:5 5:3 3:2"/>
    </vehicle>
    <vehicle id="122" depart="12.20">
        <route edges="11:10 10:0 0:1 1:2 2:3"/>
    </vehicle>
    <vehicle id="124" depart="12.40">
        <route edges="6:4 4:0 0:1 1:12 12:13"/>
    </vehicle>
    <vehicle id="125" depart="12.50">
        <route edges="7:5 5:3 3:16 16:17"/>
    </vehicle>
    <vehicle id="127" depart="12.70">
        <route edges="9:8 8:0 0:1 1:2 2:14 14:15"/>
    </vehicle>
    <vehicle id="130" depart="13.00">
        <route edges="15:14 14:2 2:3 3:5 5:7"/>
    </vehicle>
    <vehicle id="135" depart="13.50">
        <route edges="11:10 10:0 0:4"/>
    </vehicle>
    <vehicle id="136" depart="13.60">
        <route edges="17:16 16:3 3:5 5:7"/>
    </vehicle>
    <vehicle id="139" depart="13.90">
        <route edges="7:5 5:3 3:2 2:1 1:0 0:8 8:9"/>
    </vehicle>
    <vehicle id="141" depart="14.10">
        <route edges="0:4"/>
    </vehicle>
    <vehicle id="142" depart="14.20">
        <route edges="3:2 2:1 1:0 0:4 4:6"/>
    </vehicle>
    <vehicle id="143" depart="14.30">
        <route edges="11:10 10:0"/>
    </vehicle>
    <vehicle id="144" depart="14.40">
        <route edges="8:0 0:1 1:2 2:3 3:18 18:19"/>
    </vehicle>
    <vehicle id="145" depart="14.50">
        <route edges="4:0 0:1 1:12 12:13"/>
    </vehicle>
    <vehicle id="146" depart="14.60">
        <route edges="14:2 2:1 1:0 0:4 4:6"/>
    </vehicle>
    <vehicle id="148" depart="14.80">
        <route edges="0:1 1:2 2:3 3:5"/>
    </vehicle>
    <vehicle id="151" depart="15.10">
        <route edges="13:12 12:1 1:2"/>
    </vehicle>
    <vehicle id="154" depart="15.40">
        <route edges="11:10 10:0 0:4 4:6"/>
    </vehicle>
    <vehicle id="156" depart="15.60">
        <route edges="6:4 4:0 0:10 10:11"/>
    </vehicle>
    <vehicle id="159" depart="15.90">
        <route edges="4:0 0:1 1:12 12:13"/>
    </vehicle>
    <vehicle id="160" depart="16.00">
        <route edges="0:1 1:2 2:3 3:5 5:7"/>
    </vehicle>
    <vehicle id="164" depart="16.40">
        <route edges="5:3 3:2 2:1 1:0 0:10"/>
    </vehicle>
    <vehicle id="169" depart="16.90">
        <route edges="6:4 4:0 0:1 1:2 2:14 14:15"/>
    </vehicle>
    <vehicle id="171" depart="17.10">
        <route edges="7:5 5:3 3:2 2:1 1:0 0:10"/>
    </vehicle>
    <vehicle id="172" depart="17.20">
        <route edges="7:5 5:3 3:2 2:1 1:12 12:13"/>
    </vehicle>
    <vehicle id="175" depart="17.50">
        <route edges="17:16 16:3 3:2 2:1 1:0 0:10 10:11"/>
    </vehicle>
    <vehicle id="177" depart="17.70">
        <route edges="17:16 16:3 3:5"/>
    </vehicle>
    <vehicle id="180" depart="18.00">
        <route edges="18:3 3:2 2:1 1:0 0:4 4:6"/>
    </vehicle>
    <vehicle id="181" depart="18.10">
        <route edges="0:4 4:6"/>
    </vehicle>
    <vehicle id="183" depart="18.30">
        <route edges="7:5 5:3 3:16 16:17"/>
    </vehicle>
    <vehicle id="185" depart="18.50">
        <route edges="17:16 16:3 3:2 2:1 1:0 0:10 10:11"/>
    </vehicle>
    <vehicle id="186" depart="18.60">
        <route edges="12:1 1:0 0:4 4:6"/>
    </vehicle>
    <vehicle id="187" depart="18.70">
        <route edges="4:0 0:8 8:9"/>
    </vehicle>
    <vehicle id="189" depart="18.90">
        <route edges="14:2 2:1 1:0"/>
    </vehicle>
    <vehicle id="190" depart="19.00">
        <route edges="7:5 5:3 3:16 16:17"/>
    </vehicle>
    <vehicle id="194" depart="19.40">
        <route edges="9:8 8:0 0:1 1:2 2:3 3:5 5:7"/>
    </vehicle>
    <vehicle id="196" depart="19.60">
        <route edges="5:3 3:18 18:19"/>
    </vehicle>
    <vehicle id="197" depart="19.70">
        <route edges="19:18 18:3 3:2 2:14 14:15"/>
    </vehicle>
    <vehicle id="199" depart="19.90">
        <route edges="6:4 4:0 0:1 1:2 2:3 3:16 16:17"/>
    </vehicle>
    <vehicle id="202" depart="20.20">
        <route edges="2:3 3:5"/>
    </vehicle>
    <vehicle id="203" depart="20.30">
        <route edges="12:1 1:0 0:4"/>
    </vehicle>
    <vehicle id="206" depart="20.60">
        <route edges="4:0 0:8 8:9"/>
    </vehicle>
    <vehicle id="207" depart="20.70">
        <route edges="6:4 4:0 0:1 1:2 2:3 3:16"/>
    </vehicle>
    <vehicle id="210" depart="21.00">
        <route edges="17:16 16:3 3:2 2:14 14:15"/>
    </vehicle>
    <vehicle id="216" depart="21.60">
        <route edges="6:4 4:0 0:1 1:2 2:3"/>
    </vehicle>
    <vehicle id="219" depart="21.90">
        <route edges="8:0 0:1 1:2 2:3 3:5 5:7"/>
    </vehicle>
    <vehicle id="220" depart="22.00">
        <route edges="11:10 10:0 0:1 1:2 2:3 3:5 5:7"/>
    </vehicle>
    <vehicle id="221" depart="22.10">
        <route edges="7:5 5:3 3:2 2:1 1:0 0:8"/>
    </vehicle>
    <vehicle id="222" depart="22.20">
        <route edges="1:2 2:3 3:5"/>
    </vehicle>
    <vehicle id="223" depart="22.30">
        <route edges="9:8 8:0 0:1 1:2 2:3 3:16 16:17"/>
    </vehicle>
    <vehicle id="227" depart="22.70">
        <route edges="6:4 4:0"/>
    </vehicle>
    <vehicle id="229" depart="22.90">
        <route edges="17:16 16:3 3:18"/>
    </vehicle>
    <vehicle id="230" depart="23.00">
        <route edges="6:4 4:0 0:8"/>
    </vehicle>
    <vehicle id="231" depart="23.10">
        <route edges="0:4"/>
    </vehicle>
    <vehicle id="234" depart="23.40">
        <route edges="5:3 3:2 2:1 1:0 0:4"/>
    </vehicle>
    <vehicle id="236" depart="23.60">
        <route edges="6:4 4:0 0:1 1:2 2:3 3:5 5:7"/>
    </vehicle>
    <vehicle id="238" depart="23.80">
        <route edges="0:1 1:2 2:14 14:15"/>
    </vehicle>
    <vehicle id="243" depart="24.30">
        <route edges="7:5 5:3 3:2 2:1 1:12 12:13"/>
    </vehicle>
    <vehicle id="245" depart="24.50">
        <route edges="7:5 5:3 3:16 16:17"/>
    </vehicle>
    <vehicle id="250" depart="25.00">
        <route edges="7:5 5:3 3:2 2:1 1:0 0:4 4:6"/>
    </vehicle>
    <vehicle id="251" depart="25.10">
        <route edges="11:10 10:0 0:1 1:2 2:3 3:5 5:7"/>
    </vehicle>
    <vehicle id="254" depart="25.40">
        <route edges="2:1 1:0 0:10"/>
    </vehicle>
    <vehicle id="256" depart="25.60">
        <route edges="18:3 3:2"/>
    </vehicle>
    <vehicle id="257" depart="25.70">
        <route edges="13:12 12:1 1:2 2:3"/>
    </vehicle>
    <vehicle id="258" depart="25.80">
        <route edges="13:12 12:1 1:2 2:3 3:16 16:17"/>
    </vehicle>
    <vehicle id="259" depart="25.90">
        <route edges="3:2 2:14 14:15"/>
    </vehicle>
    <vehicle id="261" depart="26.10">
        <route edges="5:3 3:2 2:1 1:0 0:8"/>
    </vehicle>
    <vehicle id="263" depart="26.30">
        <route edges="17:16 16:3 3:5 5:7"/>
    </vehicle>
    <vehicle id="265" depart="26.50">
        <route edges="4:0 0:1 1:2 2:3 3:18 18:19"/>
    </vehicle>
    <vehicle id="266" depart="26.60">
        <route edges="6:4 4:0 0:1 1:2 2:3 3:5"/>
    </vehicle>
    <vehicle id="267" depart="26.70">
        <route edges="5:3 3:2 2:1 1:0 0:4 4:6"/>
    </vehicle>
    <vehicle id="268" depart="26.80">
        <route edges="17:16 16:3 3:2 2:1 1:0 0:4 4:6"/>
    </vehicle>
    <vehicle id="271" depart="27.10">
        <route edges="5:3 3:2 2:1 1:0 0:4 4:6"/>
    </vehicle>
    <vehicle id="272" depart="27.20">
        <route edges="13:12 12:1"/>
    </vehicle>
    <vehicle id="273" depart="27.30">
        <route edges="4:0 0:1 1:2 2:3 3:5"/>
    </vehicle>
    <vehicle id="275" depart="27.50">
        <route edges="6:4 4:0 0:10"/>
    </vehicle>
    <vehicle id="276" depart="27.60">
        <route edges="11:10 10:0 0:4 4:6"/>
    </vehicle>
    <vehicle id="277" depart="27.70">
        <route edges="4:0 0:1 1:2 2:3 3:18 18:19"/>
    </vehicle>
    <vehicle id="279" depart="27.90">
        <route edges="7:5 5:3 3:18 18:19"/>
    </vehicle>
    <vehicle id="285" depart="28.50">
        <route edges="2:3 3:5 5:7"/>
    </vehicle>
    <vehicle id="286" depart="28.60">
        <route edges="3:2 2:14 14:15"/>
    </vehicle>
    <vehicle id="288" depart="28.80">
        <route edges="15:14 14:2 2:1 1:0 0:8 8:9"/>
    </vehicle>
    <vehicle id="291" depart="29.10">
        <route edges="17:16 16:3 3:2 2:1 1:0 0:8 8:9"/>
    </vehicle>
    <vehicle id="292" depart="29.20">
        <route edges="3:2 2:1 1:12"/>
    </vehicle>
    <vehicle id="294" depart="29.40">
        <route edges="19:18 18:3 3:2 2:1 1:0 0:8 8:9"/>
    </vehicle>
    <vehicle id="297" depart="29.70">
        <route edges="15:14 14:2 2:1 1:0 0:4 4:6"/>
    </vehicle>
    <vehicle id="298" depart="29.80">
        <route edges="18:3 3:5"/>
    </vehicle>
    <vehicle id="301" depart="30.10">
        <route edges="19:18 18:3 3:2"/>
    </vehicle>
    <vehicle id="303" depart="30.30">
        <route edges="5:3 3:2 2:1 1:0"/>
    </vehicle>
    <vehicle id="304" depart="30.40">
        <route edges="7:5 5:3 3:2 2:1 1:0 0:10 10:11"/>
    </vehicle>
    <vehicle id="307" depart="30.70">
        <route edges="9:8 8:0 0:1 1:2 2:3 3:5"/>
    </vehicle>
    <vehicle id="310" depart="31.00">
        <route edges="17:16 16:3 3:2 2:1 1:0 0:8"/>
    </vehicle>
    <vehicle id="311" depart="31.10">
        <route edges="11:10 10:0 0:1 1:2 2:3 3:5"/>
    </vehicle>
    <vehicle id="315" depart="31.50">
        <route edges="19:18 18:3 3:16 16:17"/>
    </vehicle>
    <vehicle id="317" depart="31.70">
        <route edges="6:4 4:0"/>
    </vehicle>
    <vehicle id="319" depart="31.90">
        <route edges="6:4 4:0 0:1 1:12 12:13"/>
    </vehicle>
    <vehicle id="322" depart="32.20">
        <route edges="11:10 10:0 0:1 1:2 2:14 14:15"/>
    </vehicle>
    <vehicle id="323" depart="32.30">
        <route edges="7:5 5:3 3:2 2:14 14:15"/>
    </vehicle>
    <vehicle id="324" depart="32.40">
        <route edges="9:8 8:0 0:1 1:2 2:3 3:18"/>
    </vehicle>
    <vehicle id="325" depart="32.50">
        <route edges="3:2 2:1 1:0 0:4 4:6"/>
    </vehicle>
    <vehicle id="327" depart="32.70">
        <route edges="7:5 5:3 3:2 2:1 1:0 0:4"/>
    </vehicle>
    <vehicle id="328" depart="32.80">
        <route edges="7:5 5:3 3:2 2:1 1:0 0:4"/>
    </vehicle>
    <vehicle id="330" depart="33.00">
        <route edges="1:2 2:3 3:16"/>
    </vehicle>
    <vehicle id="336" depart="33.60">
        <route edges="6:4 4:0"/>
    </vehicle>
    <vehicle id="337" depart="33.70">
        <route edges="13:12 12:1 1:2 2:3 3:5"/>
    </vehicle>
    <vehicle id="339" depart="33.90">
        <route edges="13:12 12:1 1:0 0:4 4:6"/>
    </vehicle>
    <vehicle id="340" depart="34.00">
        <route edges="18:3 3:5 5:7"/>
    </vehicle>
    <vehicle id="341" depart="34.10">
        <route edges="7:5 5:3 3:18 18:19"/>
    </vehicle>
    <vehicle id="344" depart="34.40">
        <route edges="13:12 12:1 1:2 2:3 3:5 5:7"/>
    </vehicle>
    <vehicle id="348" depart="34.80">
        <route edges="19:18 18:3 3:2 2:1 1:0 0:4 4:6"/>
    </vehicle>
    <vehicle id="350" depart="35.00">
        <route edges="17:16 16:3 3:2 2:1 1:0 0:10 10:11"/>
    </vehicle>
    <vehicle id="351" depart="35.10">
        <route edges="13:12 12:1 1:2 2:3 3:16 16:17"/>
    </vehicle>
    <vehicle id="352" depart="35.20">
        <route edges="8:0 0:1 1:2 2:3 3:5 5:7"/>
    </vehicle>
    <vehicle id="353" depart="35.30">
        <route edges="11:10 10:0 0:1 1:2 2:3 3:18 18:19"/>
    </vehicle>
    <vehicle id="354" depart="35.40">
        <route edges="10:0 0:1 1:2 2:14 14:15"/>
    </vehicle>
    <vehicle id="357" depart="35.70">
        <route edges="9:8 8:0 0:1 1:2 2:3 3:5 5:7"/>
    </vehicle>
    <vehicle id="358" depart="35.80">
        <route edges="4:0 0:1 1:2 2:3 3:5 5:7"/>
    </vehicle>
    <vehicle id="360" depart="36.00">
        <route edges="3:2 2:1"/>
    </vehicle>
    <vehicle id="364" depart="36.40">
        <route edges="13:12 12:1 1:2 2:3 3:16 16:17"/>
    </vehicle>
    <vehicle id="366" depart="36.60">
        <route edges="4:0 0:10"/>
    </vehicle>
    <vehicle id="371" depart="37.10">
        <route edges="6:4 4:0 0:1 1:2 2:14 14:15"/>
    </vehicle>
    <vehicle id="372" depart="37.20">
        <route edges="19:18 18:3 3:2 2:1 1:0 0:4 4:6"/>
    </vehicle>
    <vehicle id="375" depart="37.50">
        <route edges="6:4 4:0 0:1 1:2 2:3 3:18 18:19"/>
    </vehicle>
    <vehicle id="377" depart="37.70">
        <route edges="2:3 3:5 5:7"/>
    </vehicle>
    <vehicle id="380" depart="38.00">
        <route edges="13:12 12:1 1:0 0:4 4:6"/>
    </vehicle>
    <vehicle id="383" depart="38.30">
        <route edges="2:3 3:18 18:19"/>
    </vehicle>
    <vehicle id="385" depart="38.50">
        <route edges="15:14 14:2 2:3 3:5"/>
    </vehicle>
    <vehicle id="386" depart="38.60">
        <route edges="7:5 5:3 3:2 2:1 1:0 0:8 8:9"/>
    </vehicle>
    <vehicle id="387" depart="38.70">
        <route edges="11:10 10:0 0:4 4:6"/>
    </vehicle>
    <vehicle id="391" depart="39.10">
        <route edges="6:4 4:0 0:1 1:2 2:14 14:15"/>
    </vehicle>
    <vehicle id="395" depart="39.50">
        <route edges="7:5 5:3 3:18 18:19"/>
    </vehicle>
    <vehicle id="396" depart="39.60">
        <route edges="13:12 12:1 1:2 2:3 3:18 18:19"/>
    </vehicle>
    <vehicle id="398" depart="39.80">
        <route edges="17:16 16:3 3:2 2:1 1:0 0:4"/>
    </vehicle>
    <vehicle id="402" depart="40.20">
        <route edges="11:10 10:0 0:4 4:6"/>
    </vehicle>
    <vehicle id="404" depart="40.40">
        <route edges="11:10 10:0 0:4 4:6"/>
    </vehicle>
    <vehicle id="408" depart="40.80">
        <route edges="7:5 5:3 3:2 2:1 1:0 0:8 8:9"/>
    </vehicle>
    <vehicle id="409" depart="40.90">
        <route edges="3:2 2:1 1:0 0:4 4:6"/>
    </vehicle>
    <vehicle id="410" depart="41.00">
        <route edges="11:10 10:0 0:1 1:2 2:3 3:18 18:19"/>
    </vehicle>
    <vehicle id="411" depart="41.10">
        <route edges="16:3 3:2 2:1"/>
    </vehicle>
    <vehicle id="412" depart="41.20">
        <route edges="7:5 5:3 3:2 2:1 1:0 0:4"/>
    </vehicle>
    <vehicle id="413" depart="41.30">
        <route edges="0:4 4:6"/>
    </vehicle>
    <vehicle id="415" depart="41.50">
        <route edges="11:10 10:0 0:4 4:6"/>
    </vehicle>
    <vehicle id="417" depart="41.70">
        <route edges="10:0 0:4"/>
    </vehicle>
    <vehicle id="423" depart="42.30">
        <route edges="8:0 0:10"/>
    </vehicle>
    <vehicle id="427" depart="42.70">
        <route edges="4:0 0:1 1:2 2:14 14:15"/>
    </vehicle>
    <vehicle id="433" depart="43.30">
        <route edges="19:18 18:3 3:2"/>
    </vehicle>
    <vehicle id="434" depart="43.40">
        <route edges="4:0 0:1 1:12 12:13"/>
    </vehicle>
    <vehicle id="435" depart="43.50">
        <route edges="6:4 4:0 0:1 1:2 2:3 3:5 5:7"/>
    </vehicle>
    <vehicle id="437" depart="43.70">
        <route edges="3:2 2:14"/>
    </vehicle>
    <vehicle id="438" depart="43.80">
        <route edges="13:12 12:1 1:2 2:14 14:15"/>
    </vehicle>
    <vehicle id="443" depart="44.30">
        <route edges="14:2 2:1 1:0 0:4 4:6"/>
    </vehicle>
    <vehicle id="445" depart="44.50">
        <route edges="1:0 0:4"/>
    </vehicle>
    <vehicle id="446" depart="44.60">
        <route edges="1:0 0:4 4:6"/>
    </vehicle>
    <vehicle id="447" depart="44.70">
        <route edges="19:18 18:3 3:2 2:1 1:0 0:10"/>
    </vehicle>
    <vehicle id="449" depart="44.90">
        <route edges="0:1 1:12 12:13"/>
    </vehicle>
    <vehicle id="450" depart="45.00">
        <route edges="5:3 3:2 2:1 1:12 12:13"/>
    </vehicle>
    <vehicle id="453" depart="45.30">
        <route edges="11:10 10:0 0:4 4:6"/>
    </vehicle>
    <vehicle id="454" depart="45.40">
        <route edges="7:5 5:3 3:16 16:17"/>
    </vehicle>
    <vehicle id="455" depart="45.50">
        <route edges="4:0 0:1"/>
    </vehicle>
    <vehicle id="457" depart="45.70">
        <route edges="19:18 18:3 3:2 2:1 1:12"/>
    </vehicle>
    <vehicle id="458" depart="45.80">
        <route edges="15:14 14:2 2:1 1:0 0:10"/>
    </vehicle>
    <vehicle id="459" depart="45.90">
        <route edges="6:4 4:0 0:10 10:11"/>
    </vehicle>
    <vehicle id="460" depart="46.00">
        <route edges="7:5 5:3 3:2 2:1 1:0 0:4 4:6"/>
    </vehicle>
    <vehicle id="461" depart="46.10">
        <route edges="6:4 4:0"/>
    </vehicle>
    <vehicle id="462" depart="46.20">
        <route edges="17:16 16:3 3:2 2:1 1:12 12:13"/>
    </vehicle>
    <vehicle id="464" depart="46.40">
        <route edges="19:18 18:3 3:2 2:1 1:0"/>
    </vehicle>
    <vehicle id="465" depart="46.50">
        <route edges="9:8 8:0 0:1 1:2 2:3 3:5 5:7"/>
    </vehicle>
    <vehicle id="466" depart="46.60">
        <route edges="1:2 2:3 3:18"/>
    </vehicle>
    <vehicle id="467" depart="46.70">
        <route edges="15:14 14:2 2:1 1:12"/>
    </vehicle>
    <vehicle id="468" depart="46.80">
        <route edges="15:14 14:2 2:3 3:5 5:7"/>
    </vehicle>
    <vehicle id="470" depart="47.00">
        <route edges="13:12 12:1 1:2 2:3 3:18"/>
    </vehicle>
    <vehicle id="471" depart="47.10">
        <route edges="7:5 5:3 3:2 2:1 1:0 0:4"/>
    </vehicle>
    <vehicle id="472" depart="47.20">
        <route edges="11:10 10:0 0:1 1:2"/>
    </vehicle>
    <vehicle id="473" depart="47.30">
        <route edges="6:4 4:0 0:1 1:2 2:3"/>
    </vehicle>
    <vehicle id="474" depart="47.40">
        <route edges="19:18 18:3 3:2 2:1 1:0 0:4 4:6"/>
    </vehicle>
    <vehicle id="476" depart="47.60">
        <route edges="9:8 8:0 0:1 1:2 2:14 14:15"/>
    </vehicle>
    <vehicle id="477" depart="47.70">
        <route edges="7:5 5:3 3:2 2:1 1:0 0:8 8:9"/>
    </vehicle>
    <vehicle id="479" depart="47.90">
        <route edges="19:18 18:3 3:16 16:17"/>
    </vehicle>
    <vehicle id="480" depart="48.00">
        <route edges="13:12 12:1 1:2 2:3 3:16 16:17"/>
    </vehicle>
    <vehicle id="482" depart="48.20">
        <route edges="19:18 18:3 3:2 2:1 1:0 0:10 10:11"/>
    </vehicle>
    <vehicle id="483" depart="48.30">
        <route edges="13:12 12:1 1:0 0:8 8:9"/>
    </vehicle>
    <vehicle id="484" depart="48.40">
        <route edges="5:3 3:2 2:1 1:0 0:10 10:11"/>
    </vehicle>
    <vehicle id="485" depart="48.50">
        <route edges="5:3 3:2 2:1 1:0 0:10"/>
    </vehicle>
    <vehicle id="486" depart="48.60">
        <route edges="3:16"/>
    </vehicle>
    <vehicle id="487" depart="48.70">
        <route edges="13:12 12:1 1:0 0:10 10:11"/>
    </vehicle>
    <vehicle id="488" depart="48.80">
        <route edges="6:4 4:0 0:1 1:2 2:3 3:18"/>
    </vehicle>
    <vehicle id="489" depart="48.90">
        <route edges="6:4 4:0 0:1 1:2 2:3"/>
    </vehicle>
    <vehicle id="492" depart="49.20">
        <route edges="11:10 10:0 0:4"/>
    </vehicle>
    <vehicle id="493" depart="49.30">
        <route edges="3:5"/>
    </vehicle>
    <vehicle id="494" depart="49.40">
        <route edges="7:5 5:3 3:16 16:17"/>
    </vehicle>
    <vehicle id="495" depart="49.50">
        <route edges="5:3 3:2 2:14"/>
    </vehicle>
    <vehicle id="498" depart="49.80">
        <route edges="9:8 8:0 0:1 1:2 2:14 14:15"/>
    </vehicle>
    <vehicle id="500" depart="50.00">
        <route edges="19:18 18:3 3:2 2:1 1:0 0:4 4:6"/>
    </vehicle>
    <vehicle id="501" depart="50.10">
        <route edges="4:0 0:1 1:2 2:3 3:5 5:7"/>
    </vehicle>
    <vehicle id="502" depart="50.20">
        <route edges="6:4 4:0 0:1 1:2 2:3 3:18 18:19"/>
    </vehicle>
    <vehicle id="503" depart="50.30">
        <route edges="3:2 2:1 1:0 0:10 10:11"/>
    </vehicle>
    <vehicle id="504" depart="50.40">
        <route edges="19:18 18:3 3:5 5:7"/>
    </vehicle>
    <vehicle id="505" depart="50.50">
        <route edges="17:16 16:3 3:2 2:1 1:0 0:8 8:9"/>
    </vehicle>
    <vehicle id="507" depart="50.70">
        <route edges="6:4 4:0 0:1 1:2 2:14 14:15"/>
    </vehicle>
    <vehicle id="510" depart="51.00">
        <route edges="9:8 8:0 0:1 1:2 2:3 3:16 16:17"/>
    </vehicle>
    <vehicle id="511" depart="51.10">
        <route edges="5:3 3:2 2:14 14:15"/>
    </vehicle>
    <vehicle id="512" depart="51.20">
        <route edges="3:2 2:1 1:0 0:4 4:6"/>
    </vehicle>
    <vehicle id="514" depart="51.40">
        <route edges="15:14 14:2 2:3 3:18 18:19"/>
    </vehicle>
    <vehicle id="516" depart="51.60">
        <route edges="11:10 10:0 0:1 1:12 12:13"/>
    </vehicle>
    <vehicle id="520" depart="52.00">
        <route edges="3:2 2:1 1:0 0:4 4:6"/>
    </vehicle>
    <vehicle id="521" depart="52.10">
        <route edges="5:3 3:2 2:1 1:0 0:8 8:9"/>
    </vehicle>
    <vehicle id="525" depart="52.50">
        <route edges="6:4 4:0 0:1 1:2"/>
    </vehicle>
    <vehicle id="526" depart="52.60">
        <route edges="19:18 18:3 3:5 5:7"/>
    </vehicle>
    <vehicle id="527" depart="52.70">
        <route edges="16:3 3:18 18:19"/>
    </vehicle>
    <vehicle id="528" depart="52.80">
        <route edges="1:0 0:8"/>
    </vehicle>
    <vehicle id="529" depart="52.90">
        <route edges="4:0 0:1 1:2 2:3"/>
    </vehicle>
    <vehicle id="530" depart="53.00">
        <route edges="15:14 14:2 2:3 3:5 5:7"/>
    </vehicle>
    <vehicle id="531" depart="53.10">
        <route edges="18:3 3:2 2:1 1:12 12:13"/>
    </vehicle>
    <vehicle id="532" depart="53.20">
        <route edges="7:5 5:3 3:18"/>
    </vehicle>
    <vehicle id="536" depart="53.60">
        <route edges="6:4 4:0"/>
    </vehicle>
    <vehicle id="540" depart="54.00">
        <route edges="11:10 10:0 0:1 1:2 2:3 3:16 16:17"/>
    </vehicle>
    <vehicle id="541" depart="54.10">
        <route edges="11:10 10:0 0:1 1:2 2:3 3:5 5:7"/>
    </vehicle>
    <vehicle id="542" depart="54.20">
        <route edges="11:10 10:0 0:1 1:2 2:3 3:5 5:7"/>
    </vehicle>
    <vehicle id="543" depart="54.30">
        <route edges="9:8 8:0 0:4 4:6"/>
    </vehicle>
    <vehicle id="546" depart="54.60">
        <route edges="6:4 4:0"/>
    </vehicle>
    <vehicle id="547" depart="54.70">
        <route edges="0:4"/>
    </vehicle>
    <vehicle id="551" depart="55.10">
        <route edges="7:5 5:3 3:2"/>
    </vehicle>
    <vehicle id="552" depart="55.20">
        <route edges="3:5 5:7"/>
    </vehicle>
    <vehicle id="554" depart="55.40">
        <route edges="13:12 12:1 1:2"/>
    </vehicle>
    <vehicle id="559" depart="55.90">
        <route edges="7:5 5:3 3:2 2:1 1:0"/>
    </vehicle>
    <vehicle id="561" depart="56.10">
        <route edges="1:0 0:4 4:6"/>
    </vehicle>
    <vehicle id="562" depart="56.20">
        <route edges="13:12 12:1 1:0 0:10"/>
    </vehicle>
    <vehicle id="564" depart="56.40">