<?xml version="1.0" encoding="UTF-8"?>

<!-- generated on Thu Oct 23 22:33:37 2014 by SUMO duarouter Version 0.18.0
<?xml version="1.0" encoding="UTF-8"?>

<configuration xmlns:xsi="http://www.w3.org/2001/XMLSchema-instance" xsi:noNamespaceSchemaLocation="http://sumo.sf.net/xsd/duarouterConfiguration.xsd">

    <input>
        <net-file value="corridor.net.xml"/>
        <trip-files value="experimentos/corridor.p0.1.6.trips.xml"/>
    </input>

    <output>
        <output-file value="experimentos/corridor.p0.1.6.rou.xml"/>
    </output>

    <processing>
        <ignore-errors value="true"/>
    </processing>

    <random_number>
        <random value="true"/>
    </random_number>

</configuration>
-->

<routes xmlns:xsi="http://www.w3.org/2001/XMLSchema-instance" xsi:noNamespaceSchemaLocation="http://sumo.sf.net/xsd/routes_file.xsd">
    <vehicle id="4" depart="0.40">
        <route edges="17:16 16:3 3:2 2:1 1:0 0:4 4:6"/>
    </vehicle>
    <vehicle id="5" depart="0.50">
        <route edges="11:10 10:0 0:4 4:6"/>
    </vehicle>
    <vehicle id="8" depart="0.80">
        <route edges="5:3 3:2 2:1 1:0 0:4 4:6"/>
    </vehicle>
    <vehicle id="9" depart="0.90">
        <route edges="16:3 3:2 2:1 1:0 0:10 10:11"/>
    </vehicle>
    <vehicle id="11" depart="1.10">
        <route edges="13:12 12:1 1:0 0:4"/>
    </vehicle>
    <vehicle id="14" depart="1.40">
        <route edges="6:4 4:0 0:1 1:2 2:3 3:5 5:7"/>
    </vehicle>
    <vehicle id="15" depart="1.50">
        <route edges="12:1 1:2 2:14 14:15"/>
    </vehicle>
    <vehicle id="16" depart="1.60">
        <route edges="15:14 14:2 2:3 3:5"/>
    </vehicle>
    <vehicle id="17" depart="1.70">
        <route edges="17:16 16:3 3:2 2:14 14:15"/>
    </vehicle>
    <vehicle id="18" depart="1.80">
        <route edges="13:12 12:1 1:2 2:3 3:18 18:19"/>
    </vehicle>
    <vehicle id="19" depart="1.90">
        <route edges="15:14 14:2 2:1 1:12 12:13"/>
    </vehicle>
    <vehicle id="20" depart="2.00">
        <route edges="19:18 18:3 3:2 2:1 1:0 0:4 4:6"/>
    </vehicle>
    <vehicle id="22" depart="2.20">
        <route edges="7:5 5:3 3:2 2:1"/>
    </vehicle>
    <vehicle id="31" depart="3.10">
        <route edges="6:4 4:0 0:1"/>
    </vehicle>
    <vehicle id="32" depart="3.20">
        <route edges="15:14 14:2 2:1 1:0"/>
    </vehicle>
    <vehicle id="37" depart="3.70">
        <route edges="12:1 1:0 0:4"/>
    </vehicle>
    <vehicle id="39" depart="3.90">
        <route edges="11:10 10:0 0:1 1:2 2:3 3:5 5:7"/>
    </vehicle>
    <vehicle id="41" depart="4.10">
        <route edges="7:5 5:3 3:16 16:17"/>
    </vehicle>
    <vehicle id="42" depart="4.20">
        <route edges="19:18 18:3 3:2 2:1 1:0 0:8 8:9"/>
    </vehicle>
    <vehicle id="43" depart="4.30">
        <route edges="13:12 12:1 1:2 2:3 3:5 5:7"/>
    </vehicle>
    <vehicle id="44" depart="4.40">
        <route edges="2:3 3:16 16:17"/>
    </vehicle>
    <vehicle id="45" depart="4.50">
        <route edges="7:5 5:3 3:2 2:1 1:0 0:4 4:6"/>
    </vehicle>
    <vehicle id="46" depart="4.60">
        <route edges="17:16 16:3 3:2"/>
    </vehicle>
    <vehicle id="47" depart="4.70">
        <route edges="3:2 2:1 1:0 0:8 8:9"/>
    </vehicle>
    <vehicle id="50" depart="5.00">
        <route edges="2:3 3:5 5:7"/>
    </vehicle>
    <vehicle id="51" depart="5.10">
        <route edges="11:10 10:0 0:4 4:6"/>
    </vehicle>
    <vehicle id="53" depart="5.30">
        <route edges="15:14 14:2 2:1 1:0 0:8"/>
    </vehicle>
    <vehicle id="54" depart="5.40">
        <route edges="13:12 12:1 1:0 0:4 4:6"/>
    </vehicle>
    <vehicle id="57" depart="5.70">
        <route edges="11:10 10:0 0:1 1:2 2:3 3:5 5:7"/>
    </vehicle>
    <vehicle id="59" depart="5.90">
        <route edges="17:16 16:3 3:5 5:7"/>
    </vehicle>
    <vehicle id="64" depart="6.40">
        <route edges="3:2 2:1"/>
    </vehicle>
    <vehicle id="65" depart="6.50">
        <route edges="7:5 5:3"/>
    </vehicle>
    <vehicle id="66" depart="6.60">
        <route edges="11:10 10:0 0:1 1:12 12:13"/>
    </vehicle>
    <vehicle id="67" depart="6.70">
        <route edges="2:1 1:12 12:13"/>
    </vehicle>
    <vehicle id="69" depart="6.90">
        <route edges="17:16 16:3 3:2 2:1 1:12 12:13"/>
    </vehicle>
    <vehicle id="70" depart="7.00">
        <route edges="3:5 5:7"/>
    </vehicle>
    <vehicle id="74" depart="7.40">
        <route edges="7:5 5:3 3:2 2:1 1:0 0:4"/>
    </vehicle>
    <vehicle id="78" depart="7.80">
        <route edges="9:8 8:0 0:4 4:6"/>
    </vehicle>
    <vehicle id="80" depart="8.00">
        <route edges="7:5 5:3 3:2 2:1 1:12 12:13"/>
    </vehicle>
    <vehicle id="87" depart="8.70">
        <route edges="11:10 10:0 0:1 1:2 2:3 3:5 5:7"/>
    </vehicle>
    <vehicle id="88" depart="8.80">
        <route edges="18:3 3:2 2:14 14:15"/>
    </vehicle>
    <vehicle id="90" depart="9.00">
        <route edges="3:5 5:7"/>
    </vehicle>
    <vehicle id="95" depart="9.50">
        <route edges="17:16 16:3 3:2 2:1 1:12 12:13"/>
    </vehicle>
    <vehicle id="99" depart="9.90">
        <route edges="8:0 0:1 1:2 2:3 3:5 5:7"/>
    </vehicle>
    <vehicle id="100" depart="10.00">
        <route edges="7:5 5:3 3:2 2:1 1:0 0:8 8:9"/>
    </vehicle>
    <vehicle id="101" depart="10.10">
        <route edges="6:4 4:0 0:10 10:11"/>
    </vehicle>
    <vehicle id="104" depart="10.40">
        <route edges="1:2 2:3 3:16 16:17"/>
    </vehicle>
    <vehicle id="105" depart="10.50">
        <route edges="19:18 18:3 3:2 2:1 1:12 12:13"/>
    </vehicle>
    <vehicle id="107" depart="10.70">
        <route edges="19:18 18:3 3:16 16:17"/>
    </vehicle>
    <vehicle id="108" depart="10.80">
        <route edges="6:4 4:0 0:8 8:9"/>
    </vehicle>
    <vehicle id="109" depart="10.90">
        <route edges="6:4 4:0 0:1"/>
    </vehicle>
    <vehicle id="112" depart="11.20">
        <route edges="11:10 10:0 0:4"/>
    </vehicle>
    <vehicle id="114" depart="11.40">
        <route edges="7:5 5:3 3:2 2:1 1:0 0:10 10:11"/>
    </vehicle>
    <vehicle id="119" depart="11.90">
        <route edges="0:1 1:12"/>
    </vehicle>
    <vehicle id="124" depart="12.40">
        <route edges="6:4 4:0 0:10 10:11"/>
    </vehicle>
    <vehicle id="126" depart="12.60">
        <route edges="7:5 5:3 3:2 2:1 1:0 0:4"/>
    </vehicle>
    <vehicle id="127" depart="12.70">
        <route edges="13:12 12:1 1:0 0:10 10:11"/>
    </vehicle>
    <vehicle id="128" depart="12.80">
        <route edges="7:5 5:3 3:2 2:1 1:12 12:13"/>
    </vehicle>
    <vehicle id="129" depart="12.90">
        <route edges="17:16 16:3 3:5 5:7"/>
    </vehicle>
    <vehicle id="131" depart="13.10">
        <route edges="13:12 12:1 1:2 2:3 3:5 5:7"/>
    </vehicle>
    <vehicle id="132" depart="13.20">
        <route edges="6:4 4:0 0:1 1:2 2:3 3:5 5:7"/>
    </vehicle>
    <vehicle id="133" depart="13.30">
        <route edges="9:8 8:0 0:1 1:2 2:3 3:5 5:7"/>
    </vehicle>
    <vehicle id="136" depart="13.60">
        <route edges="17:16 16:3 3:5 5:7"/>
    </vehicle>
    <vehicle id="138" depart="13.80">
        <route edges="9:8 8:0 0:1 1:2"/>
    </vehicle>
    <vehicle id="140" depart="14.00">
        <route edges="2:3 3:5 5:7"/>
    </vehicle>
    <vehicle id="141" depart="14.10">
        <route edges="17:16 16:3 3:2 2:1 1:12 12:13"/>
    </vehicle>
    <vehicle id="142" depart="14.20">
        <route edges="15:14 14:2 2:3 3:5"/>
    </vehicle>
    <vehicle id="145" depart="14.50">
        <route edges="6:4 4:0 0:10 10:11"/>
    </vehicle>
    <vehicle id="146" depart="14.60">
        <route edges="16:3 3:2 2:1 1:12 12:13"/>
    </vehicle>
    <vehicle id="147" depart="14.70">
        <route edges="6:4 4:0 0:1 1:2 2:3 3:18 18:19"/>
    </vehicle>
    <vehicle id="149" depart="14.90">
        <route edges="5:3 3:2 2:14 14:15"/>
    </vehicle>
    <vehicle id="150" depart="15.00">
        <route edges="7:5 5:3"/>
    </vehicle>
    <vehicle id="152" depart="15.20">
        <route edges="7:5 5:3 3:2"/>
    </vehicle>
    <vehicle id="153" depart="15.30">
        <route edges="11:10 10:0 0:1"/>
    </vehicle>
    <vehicle id="154" depart="15.40">
        <route edges="0:4 4:6"/>
    </vehicle>
    <vehicle id="155" depart="15.50">
        <route edges="12:1 1:2"/>
    </vehicle>
    <vehicle id="156" depart="15.60">
        <route edges="17:16 16:3 3:2 2:14 14:15"/>
    </vehicle>
    <vehicle id="157" depart="15.70">
        <route edges="15:14 14:2 2:3"/>
    </vehicle>
    <vehicle id="160" depart="16.00">
        <route edges="13:12 12:1 1:0 0:10"/>
    </vehicle>
    <vehicle id="161" depart="16.10">
        <route edges="13:12 12:1 1:2 2:14"/>
    </vehicle>
    <vehicle id="164" depart="16.40">
        <route edges="7:5 5:3 3:2 2:1 1:0 0:10 10:11"/>
    </vehicle>
    <vehicle id="165" depart="16.50">
        <route edges="3:2 2:1 1:0"/>
    </vehicle>
    <vehicle id="166" depart="16.60">
        <route edges="1:2 2:3"/>
    </vehicle>
    <vehicle id="168" depart="16.80">
        <route edges="7:5 5:3 3:2 2:1 1:0 0:4 4:6"/>
    </vehicle>
    <vehicle id="169" depart="16.90">
        <route edges="8:0 0:1 1:2 2:3 3:18"/>
    </vehicle>
    <vehicle id="170" depart="17.00">
        <route edges="19:18 18:3 3:2 2:1"/>
    </vehicle>
    <vehicle id="173" depart="17.30">
        <route edges="7:5 5:3"/>
    </vehicle>
    <vehicle id="175" depart="17.50">
        <route edges="7:5 5:3 3:18 18:19"/>
    </vehicle>
    <vehicle id="176" depart="17.60">
        <route edges="16:3 3:2"/>
    </vehicle>
    <vehicle id="177" depart="17.70">
        <route edges="9:8 8:0 0:1 1:2 2:3 3:5 5:7"/>
    </vehicle>
    <vehicle id="179" depart="17.90">
        <route edges="7:5 5:3 3:2 2:1 1:0 0:4 4:6"/>
    </vehicle>
    <vehicle id="180" depart="18.00">
        <route edges="7:5 5:3 3:2 2:1 1:0 0:10 10:11"/>
    </vehicle>
    <vehicle id="183" depart="18.30">
        <route edges="15:14 14:2 2:3"/>
    </vehicle>
    <vehicle id="184" depart="18.40">
        <route edges="0:4"/>
    </vehicle>
    <vehicle id="185" depart="18.50">
        <route edges="15:14 14:2 2:1 1:0 0:4 4:6"/>
    </vehicle>
    <vehicle id="186" depart="18.60">
        <route edges="11:10 10:0 0:4 4:6"/>
    </vehicle>
    <vehicle id="187" depart="18.70">
        <route edges="7:5 5:3 3:18 18:19"/>
    </vehicle>
    <vehicle id="188" depart="18.80">
        <route edges="4:0 0:1 1:2 2:3 3:18 18:19"/>
    </vehicle>
    <vehicle id="189" depart="18.90">
        <route edges="11:10 10:0 0:1 1:2 2:3 3:5"/>
    </vehicle>
    <vehicle id="190" depart="19.00">
        <route edges="19:18 18:3 3:2 2:14 14:15"/>
    </vehicle>
    <vehicle id="192" depart="19.20">
        <route edges="2:1 1:12 12:13"/>
    </vehicle>
    <vehicle id="193" depart="19.30">
        <route edges="0:10 10:11"/>
    </vehicle>
    <vehicle id="195" depart="19.50">
        <route edges="7:5 5:3 3:2 2:1 1:12 12:13"/>
    </vehicle>
    <vehicle id="197" depart="19.70">
        <route edges="18:3 3:16 16:17"/>
    </vehicle>
    <vehicle id="200" depart="20.00">
        <route edges="13:12 12:1 1:0 0:8 8:9"/>
    </vehicle>
    <vehicle id="202" depart="20.20">
        <route edges="0:1 1:2 2:14 14:15"/>
    </vehicle>
    <vehicle id="204" depart="20.40">
        <route edges="15:14 14:2"/>
    </vehicle>
    <vehicle id="207" depart="20.70">
        <route edges="9:8 8:0 0:1 1:2 2:3 3:5 5:7"/>
    </vehicle>
    <vehicle id="208" depart="20.80">
        <route edges="6:4 4:0 0:1 1:2 2:3 3:18 18:19"/>
    </vehicle>
    <vehicle id="210" depart="21.00">
        <route edges="7:5 5:3 3:2 2:1 1:0 0:8 8:9"/>
    </vehicle>
    <vehicle id="211" depart="21.10">
        <route edges="19:18 18:3 3:16 16:17"/>
    </vehicle>
    <vehicle id="212" depart="21.20">
        <route edges="5:3 3:2"/>
    </vehicle>
    <vehicle id="213" depart="21.30">
        <route edges="13:12 12:1 1:0 0:10 10:11"/>
    </vehicle>
    <vehicle id="215" depart="21.50">
        <route edges="17:16 16:3 3:2 2:1 1:0 0:8"/>
    </vehicle>
    <vehicle id="217" depart="21.70">
        <route edges="6:4 4:0 0:1 1:2 2:3 3:5 5:7"/>
    </vehicle>
    <vehicle id="218" depart="21.80">
        <route edges="15:14 14:2 2:1 1:0 0:8"/>
    </vehicle>
    <vehicle id="219" depart="21.90">
        <route edges="19:18 18:3 3:5 5:7"/>
    </vehicle>
    <vehicle id="220" depart="22.00">
        <route edges="6:4 4:0 0:1 1:2 2:3"/>
    </vehicle>
    <vehicle id="221" depart="22.10">
        <route edges="18:3 3:5"/>
    </vehicle>
    <vehicle id="222" depart="22.20">
        <route edges="11:10 10:0 0:1 1:2 2:14"/>
    </vehicle>
    <vehicle id="224" depart="22.40">
        <route edges="11:10 10:0 0:1 1:2 2:3 3:18 18:19"/>
    </vehicle>
    <vehicle id="225" depart="22.50">
        <route edges="6:4 4:0 0:1 1:2 2:3"/>
    </vehicle>
    <vehicle id="226" depart="22.60">
        <route edges="15:14 14:2 2:1 1:0 0:4 4:6"/>
    </vehicle>
    <vehicle id="229" depart="22.90">
        <route edges="7:5 5:3 3:2 2:14 14:15"/>
    </vehicle>
    <vehicle id="230" depart="23.00">
        <route edges="13:12 12:1 1:0 0:4 4:6"/>
    </vehicle>
    <vehicle id="231" depart="23.10">
        <route edges="7:5 5:3 3:2 2:1 1:12 12:13"/>
    </vehicle>
    <vehicle id="233" depart="23.30">
        <route edges="6:4 4:0 0:1 1:2 2:3 3:5 5:7"/>
    </vehicle>
    <vehicle id="234" depart="23.40">
        <route edges="2:3 3:5 5:7"/>
    </vehicle>
    <vehicle id="235" depart="23.50">
        <route edges="3:2 2:1 1:0"/>
    </vehicle>
    <vehicle id="240" depart="24.00">
        <route edges="7:5 5:3 3:2 2:1 1:0 0:8 8:9"/>
    </vehicle>
    <vehicle id="241" depart="24.10">
        <route edges="7:5 5:3 3:16 16:17"/>
    </vehicle>
    <vehicle id="243" depart="24.30">
        <route edges="10:0 0:1 1:2 2:14"/>
    </vehicle>
    <vehicle id="244" depart="24.40">
        <route edges="9:8 8:0 0:4 4:6"/>
    </vehicle>
    <vehicle id="245" depart="24.50">
        <route edges="7:5 5:3 3:2 2:1 1:0 0:4 4:6"/>
    </vehicle>
    <vehicle id="247" depart="24.70">
        <route edges="5:3 3:16 16:17"/>
    </vehicle>
    <vehicle id="248" depart="24.80">
        <route edges="0:1 1:2 2:14 14:15"/>
    </vehicle>
    <vehicle id="249" depart="24.90">
        <route edges="6:4 4:0 0:1 1:2 2:3 3:5"/>
    </vehicle>
    <vehicle id="250" depart="25.00">
        <route edges="12:1"/>
    </vehicle>
    <vehicle id="251" depart="25.10">
        <route edges="6:4 4:0 0:1 1:2 2:14 14:15"/>
    </vehicle>
    <vehicle id="254" depart="25.40">
        <route edges="9:8 8:0 0:1 1:12"/>
    </vehicle>
    <vehicle id="255" depart="25.50">
        <route edges="9:8 8:0 0:10"/>
    </vehicle>
    <vehicle id="256" depart="25.60">
        <route edges="4:0 0:8 8:9"/>
    </vehicle>
    <vehicle id="258" depart="25.80">
        <route edges="13:12 12:1 1:2 2:3"/>
    </vehicle>
    <vehicle id="259" depart="25.90">
        <route edges="13:12 12:1 1:0 0:4 4:6"/>
    </vehicle>
    <vehicle id="260" depart="26.00">
        <route edges="17:16 16:3 3:2 2:1 1:0 0:10 10:11"/>
    </vehicle>
    <vehicle id="261" depart="26.10">
        <route edges="19:18 18:3 3:2 2:1 1:0 0:4 4:6"/>
    </vehicle>
    <vehicle id="262" depart="26.20">
        <route edges="5:3 3:2 2:1"/>
    </vehicle>
    <vehicle id="263" depart="26.30">
        <route edges="1:12 12:13"/>
    </vehicle>
    <vehicle id="265" depart="26.50">
        <route edges="5:3 3:2 2:1 1:0 0:4 4:6"/>
    </vehicle>
    <vehicle id="266" depart="26.60">
        <route edges="6:4 4:0 0:1 1:2 2:14 14:15"/>
    </vehicle>
    <vehicle id="267" depart="26.70">
        <route edges="19:18 18:3 3:2 2:1 1:0 0:10 10:11"/>
    </vehicle>
    <vehicle id="270" depart="27.00">
        <route edges="13:12 12:1 1:0 0:4 4:6"/>
    </vehicle>
    <vehicle id="274" depart="27.40">
        <route edges="17:16 16:3 3:2"/>
    </vehicle>
    <vehicle id="275" depart="27.50">
        <route edges="4:0 0:1 1:2 2:3 3:16 16:17"/>
    </vehicle>
    <vehicle id="277" depart="27.70">
        <route edges="15:14 14:2 2:3 3:16 16:17"/>
    </vehicle>
    <vehicle id="278" depart="27.80">
        <route edges="3:2 2:1 1:12"/>
    </vehicle>
    <vehicle id="280" depart="28.00">
        <route edges="17:16 16:3 3:18"/>
    </vehicle>
    <vehicle id="283" depart="28.30">
        <route edges="9:8 8:0 0:1 1:2 2:3 3:16"/>
    </vehicle>
    <vehicle id="284" depart="28.40">
        <route edges="7:5 5:3 3:2 2:14 14:15"/>
    </vehicle>
    <vehicle id="287" depart="28.70">
        <route edges="0:1 1:12"/>
    </vehicle>
    <vehicle id="288" depart="28.80">
        <route edges="15:14 14:2 2:3"/>
    </vehicle>
    <vehicle id="292" depart="29.20">
        <route edges="19:18 18:3 3:2 2:1 1:0 0:4"/>
    </vehicle>
    <vehicle id="294" depart="29.40">
        <route edges="7:5 5:3 3:18 18:19"/>
    </vehicle>
    <vehicle id="295" depart="29.50">
        <route edges="11:10 10:0 0:1 1:2"/>
    </vehicle>
    <vehicle id="297" depart="29.70">
        <route edges="15:14 14:2 2:3 3:5"/>
    </vehicle>
    <vehicle id="298" depart="29.80">
        <route edges="1:2 2:14 14:15"/>
    </vehicle>
    <vehicle id="299" depart="29.90">
        <route edges="0:1 1:2 2:3"/>
    </vehicle>
    <vehicle id="300" depart="30.00">
        <route edges="2:3 3:5 5:7"/>
    </vehicle>
    <vehicle id="302" depart="30.20">
        <route edges="17:16 16:3 3:2 2:1 1:0 0:4 4:6"/>
    </vehicle>
    <vehicle id="303" depart="30.30">
        <route edges="8:0 0:1 1:2 2:14"/>
    </vehicle>
    <vehicle id="304" depart="30.40">
        <route edges="6:4 4:0 0:1 1:2 2:3 3:16 16:17"/>
    </vehicle>
    <vehicle id="305" depart="30.50">
        <route edges="1:2 2:3 3:18"/>
    </vehicle>
    <vehicle id="306" depart="30.60">
        <route edges="7:5 5:3 3:2 2:14 14:15"/>
    </vehicle>
    <vehicle id="307" depart="30.70">
        <route edges="6:4 4:0 0:1 1:2 2:3 3:5 5:7"/>
    </vehicle>
    <vehicle id="308" depart="30.80">
        <route edges="12:1 1:0 0:10 10:11"/>
    </vehicle>
    <vehicle id="309" depart="30.90">
        <route edges="6:4 4:0 0:10 10:11"/>
    </vehicle>
    <vehicle id="311" depart="31.10">
        <route edges="6:4 4:0 0:1 1:12 12:13"/>
    </vehicle>
    <vehicle id="312" depart="31.20">
        <route edges="15:14 14:2 2:1 1:0 0:4 4:6"/>
    </vehicle>
    <vehicle id="313" depart="31.30">
        <route edges="14:2 2:1 1:0 0:4 4:6"/>
    </vehicle>
    <vehicle id="314" depart="31.40">
        <route edges="13:12 12:1 1:0 0:4 4:6"/>
    </vehicle>
    <vehicle id="316" depart="31.60">
        <route edges="9:8 8:0 0:1 1:2 2:3 3:16 16:17"/>
    </vehicle>
    <vehicle id="317" depart="31.70">
        <route edges="2:3 3:18 18:19"/>
    </vehicle>
    <vehicle id="318" depart="31.80">
        <route edges="19:18 18:3 3:2"/>
    </vehicle>
    <vehicle id="322" depart="32.20">
        <route edges="13:12 12:1 1:0 0:8"/>
    </vehicle>
    <vehicle id="323" depart="32.30">
        <route edges="15:14 14:2 2:3"/>
    </vehicle>
    <vehicle id="324" depart="32.40">
        <route edges="11:10 10:0 0:1 1:2 2:3 3:16 16:17"/>
    </vehicle>
    <vehicle id="329" depart="32.90">
        <route edges="3:2 2:1 1:0 0:10 10:11"/>
    </vehicle>
    <vehicle id="330" depart="33.00">
        <route edges="6:4 4:0 0:10 10:11"/>
    </vehicle>
    <vehicle id="331" depart="33.10">
        <route edges="17:16 16:3 3:2"/>
    </vehicle>
    <vehicle id="333" depart="33.30">
        <route edges="6:4 4:0 0:1 1:2 2:3 3:16 16:17"/>
    </vehicle>
    <vehicle id="334" depart="33.40">
        <route edges="9:8 8:0 0:1 1:12 12:13"/>
    </vehicle>
    <vehicle id="335" depart="33.50">
        <route edges="1:0 0:4 4:6"/>
    </vehicle>
    <vehicle id="337" depart="33.70">
        <route edges="7:5 5:3 3:2 2:1 1:0 0:10 10:11"/>
    </vehicle>
    <vehicle id="338" depart="33.80">
        <route edges="2:3 3:16"/>
    </vehicle>
    <vehicle id="339" depart="33.90">
        <route edges="15:14 14:2 2:3 3:5 5:7"/>
    </vehicle>
    <vehicle id="340" depart="34.00">
        <route edges="17:16 16:3 3:5 5:7"/>
    </vehicle>
    <vehicle id="343" depart="34.30">
        <route edges="7:5 5:3 3:2 2:1 1:0 0:4"/>
    </vehicle>
    <vehicle id="347" depart="34.70">
        <route edges="12:1 1:2 2:3 3:5 5:7"/>
    </vehicle>
    <vehicle id="349" depart="34.90">
        <route edges="2:3 3:16"/>
    </vehicle>
    <vehicle id="354" depart="35.40">
        <route edges="7:5 5:3 3:2 2:1 1:0"/>
    </vehicle>
    <vehicle id="357" depart="35.70">
        <route edges="9:8 8:0 0:1 1:2 2:3 3:16"/>
    </vehicle>
    <vehicle id="359" depart="35.90">
        <route edges="6:4 4:0 0:1 1:2 2:3 3:16 16:17"/>
    </vehicle>
    <vehicle id="360" depart="36.00">
        <route edges="2:3 3:5 5:7"/>
    </vehicle>
    <vehicle id="361" depart="36.10">
        <route edges="10:0 0:8 8:9"/>
    </vehicle>
    <vehicle id="362" depart="36.20">
        <route edges="5:3 3:2 2:1 1:0 0:4"/>
    </vehicle>
    <vehicle id="364" depart="36.40">
        <route edges="12:1 1:2 2:3 3:16 16:17"/>
    </vehicle>
    <vehicle id="366" depart="36.60">
        <route edges="6:4 4:0 0:8 8:9"/>
    </vehicle>
    <vehicle id="367" depart="36.70">
        <route edges="0:4 4:6"/>
    </vehicle>
    <vehicle id="368" depart="36.80">
        <route edges="13:12 12:1 1:2 2:3 3:5"/>
    </vehicle>
    <vehicle id="369" depart="36.90">
        <route edges="6:4 4:0 0:1 1:2 2:3 3:18 18:19"/>
    </vehicle>
    <vehicle id="370" depart="37.00">
        <route edges="13:12 12:1 1:2 2:3 3:16 16:17"/>
    </vehicle>
    <vehicle id="372" depart="37.20">
        <route edges="7:5 5:3 3:2 2:1 1:0 0:10"/>
    </vehicle>
    <vehicle id="375" depart="37.50">
        <route edges="1:0 0:8 8:9"/>
    </vehicle>
    <vehicle id="376" depart="37.60">
        <route edges="9:8 8:0 0:1 1:2 2:3 3:5 5:7"/>
    </vehicle>
    <vehicle id="378" depart="37.80">
        <route edges="2:1 1:0 0:4 4:6"/>
    </vehicle>
    <vehicle id="380" depart="38.00">
        <route edges="5:3 3:2 2:1 1:0 0:4 4:6"/>
    </vehicle>
    <vehicle id="381" depart="38.10">
        <route edges="5:3 3:2 2:1 1:0 0:8 8:9"/>
    </vehicle>
    <vehicle id="382" depart="38.20">
        <route edges="15:14 14:2 2:3 3:18 18:19"/>
    </vehicle>
    <vehicle id="384" depart="38.40">
        <route edges="12:1 1:2 2:14 14:15"/>
    </vehicle>
    <vehicle id="387" depart="38.70">
        <route edges="4:0 0:1 1:2 2:3 3:5"/>
    </vehicle>
    <vehicle id="388" depart="38.80">
        <route edges="7:5 5:3 3:18 18:19"/>
    </vehicle>
    <vehicle id="389" depart="38.90">
        <route edges="1:2 2:3 3:16 16:17"/>
    </vehicle>
    <vehicle id="390" depart="39.00">
        <route edges="18:3 3:5 5:7"/>
    </vehicle>
    <vehicle id="391" depart="39.10">
        <route edges="11:10 10:0 0:1 1:2 2:3 3:16 16:17"/>
    </vehicle>
    <vehicle id="393" depart="39.30">
        <route edges="10:0 0:8 8:9"/>
    </vehicle>
    <vehicle id="394" depart="39.40">
        <route edges="18:3 3:2 2:1"/>
    </vehicle>
    <vehicle id="395" depart="39.50">
        <route edges="15:14 14:2 2:3 3:5 5:7"/>
    </vehicle>
    <vehicle id="396" depart="39.60">
        <route edges="6:4 4:0 0:1 1:2 2:3 3:18 18:19"/>
    </vehicle>
    <vehicle id="397" depart="39.70">
        <route edges="19:18 18:3 3:5 5:7"/>
    </vehicle>
    <vehicle id="398" depart="39.80">
        <route edges="19:18 18:3 3:2 2:1 1:0 0:4"/>
    </vehicle>
    <vehicle id="399" depart="39.90">
        <route edges="2:1"/>
    </vehicle>
    <vehicle id="400" depart="40.00">
        <route edges="19:18 18:3 3:2 2:1 1:0 0:10 10:11"/>
    </vehicle>
    <vehicle id="402" depart="40.20">
        <route edges="3:2 2:1 1:0 0:4"/>
    </vehicle>
    <vehicle id="406" depart="40.60">
        <route edges="6:4 4:0 0:8 8:9"/>
    </vehicle>
    <vehicle id="407" depart="40.70">
        <route edges="6:4 4:0 0:1 1:2 2:3 3:5 5:7"/>
    </vehicle>
    <vehicle id="408" depart="40.80">
        <route edges="3:5 5:7"/>
    </vehicle>
    <vehicle id="410" depart="41.00">
        <route edges="5:3 3:2 2:1 1:0 0:4"/>
    </vehicle>
    <vehicle id="415" depart="41.50">
        <route edges="19:18 18:3 3:5"/>
    </vehicle>
    <vehicle id="419" depart="41.90">
        <route edges="6:4 4:0 0:8"/>
    </vehicle>
    <vehicle id="421" depart="42.10">
        <route edges="4:0 0:8 8:9"/>
    </vehicle>
    <vehicle id="422" depart="42.20">
        <route edges="15:14 14:2 2:3 3:5 5:7"/>
    </vehicle>
    <vehicle id="423" depart="42.30">
        <route edges="13:12 12:1 1:2 2:3 3:5 5:7"/>
    </vehicle>
    <vehicle id="426" depart="42.60">
        <route edges="3:2 2:1"/>
    </vehicle>
    <vehicle id="427" depart="42.70">
        <route edges="2:1 1:0 0:8"/>
    </vehicle>
    <vehicle id="429" depart="42.90">
        <route edges="11:10 10:0 0:1 1:2 2:14 14:15"/>
    </vehicle>
    <vehicle id="430" depart="43.00">
        <route edges="1:0 0:10 10:11"/>
    </vehicle>
    <vehicle id="435" depart="43.50">
        <route edges="9:8 8:0 0:4 4:6"/>
    </vehicle>
    <vehicle id="436" depart="43.60">
        <route edges="11:10 10:0 0:1 1:2 2:3 3:5 5:7"/>
    </vehicle>
    <vehicle id="437" depart="43.70">
        <route edges="5:3 3:2"/>
    </vehicle>
    <vehicle id="438" depart="43.80">
        <route edges="6:4 4:0 0:1 1:2 2:3 3:18 18:19"/>
    </vehicle>
    <vehicle id="439" depart="43.90">
        <route edges="3:2 2:14 14:15"/>
    </vehicle>
    <vehicle id="440" depart="44.00">
        <route edges="6:4 4:0 0:1 1:2 2:3 3:16 16:17"/>
    </vehicle>
    <vehicle id="441" depart="44.10">
        <route edges="2:3 3:18"/>
    </vehicle>
    <vehicle id="442" depart="44.20">
        <route edges="11:10 10:0 0:1 1:2 2:3 3:5 5:7"/>
    </vehicle>
    <vehicle id="443" depart="44.30">
        <route edges="19:18 18:3 3:2 2:1 1:12 12:13"/>
    </vehicle>
    <vehicle id="446" depart="44.60">
        <route edges="13:12 12:1 1:0 0:8 8:9"/>
    </vehicle>
    <vehicle id="447" depart="44.70">
        <route edges="9:8 8:0"/>
    </vehicle>
    <vehicle id="448" depart="44.80">
        <route edges="2:3"/>
    </vehicle>
    <vehicle id="450" depart="45.00">
        <route edges="5:3 3:2 2:14"/>
    </vehicle>
    <vehicle id="451" depart="45.10">
        <route edges="6:4 4:0 0:1 1:2 2:14 14:15"/>
    </vehicle>
    <vehicle id="452" depart="45.20">
        <route edges="19:18 18:3 3:2 2:1 1:0 0:10"/>
    </vehicle>
    <vehicle id="453" depart="45.30">
        <route edges="6:4 4:0 0:10 10:11"/>
    </vehicle>
    <vehicle id="454" depart="45.40">
        <route edges="5:3"/>
    </vehicle>
    <vehicle id="455" depart="45.50">
        <route edges="7:5 5:3 3:2 2:1 1:0 0:4 4:6"/>
    </vehicle>
    <vehicle id="456" depart="45.60">
        <route edges="7:5 5:3 3:2 2:1 1:0"/>
    </vehicle>
    <vehicle id="457" depart="45.70">
        <route edges="6:4 4:0 0:8 8:9"/>
    </vehicle>
    <vehicle id="458" depart="45.80">
        <route edges="13:12 12:1 1:0 0:10 10:11"/>
    </vehicle>
    <vehicle id="459" depart="45.90">
        <route edges="7:5 5:3 3:2 2:1 1:0 0:10 10:11"/>
    </vehicle>
    <vehicle id="460" depart="46.00">
        <route edges="10:0 0:1 1:2 2:3 3:18 18:19"/>
    </vehicle>
    <vehicle id="461" depart="46.10">
        <route edges="8:0 0:4 4:6"/>
    </vehicle>
    <vehicle id="464" depart="46.40">
        <route edges="6:4 4:0 0:10"/>
    </vehicle>
    <vehicle id="466" depart="46.60">
        <route edges="13:12 12:1 1:0 0:8 8:9"/>
    </vehicle>
    <vehicle id="467" depart="46.70">
        <route edges="7:5 5:3 3:18 18:19"/>
    </vehicle>
    <vehicle id="468" depart="46.80">
        <route edges="6:4 4:0"/>
    </vehicle>
    <vehicle id="469" depart="46.90">
        <route edges="9:8 8:0 0:1 1:2 2:3 3:5 5:7"/>
    </vehicle>
    <vehicle id="470" depart="47.00">
        <route edges="15:14 14:2 2:3"/>
    </vehicle>
    <vehicle id="471" depart="47.10">
        <route edges="19:18 18:3 3:2 2:1 1:0 0:10 10:11"/>
    </vehicle>
    <vehicle id="474" depart="47.40">
        <route edges="13:12 12:1 1:2 2:3 3:5"/>
    </vehicle>
    <vehicle id="480" depart="48.00">
        <route edges="13:12 12:1 1:2 2:3 3:5 5:7"/>
    </vehicle>
    <vehicle id="483" depart="48.30">
        <route edges="1:2 2:3 3:5 5:7"/>
    </vehicle>
    <vehicle id="485" depart="48.50">
        <route edges="10:0 0:1 1:2"/>
    </vehicle>
    <vehicle id="490" depart="49.00">
        <route edges="6:4 4:0 0:1 1:2 2:3 3:18 18:19"/>
    </vehicle>
    <vehicle id="492" depart="49.20">
        <route edges="12:1 1:2 2:3 3:16 16:17"/>
    </vehicle>
    <vehicle id="495" depart="49.50">
        <route edges="4:0 0:1 1:2"/>
    </vehicle>
    <vehicle id="496" depart="49.60">
        <route edges="13:12 12:1 1:0 0:8 8:9"/>
    </vehicle>
    <vehicle id="500" depart="50.00">
        <route edges="7:5 5:3 3:2 2:1 1:0 0:4 4:6"/>
    </vehicle>
    <vehicle id="501" depart="50.10">
        <route edges="11:10 10:0 0:1 1:2 2:3 3:5"/>
    </vehicle>
    <vehicle id="503" depart="50.30">
        <route edges="5:3 3:2"/>
    </vehicle>
    <vehicle id="505" depart="50.50">
        <route edges="13:12 12:1 1:2 2:14"/>
    </vehicle>
    <vehicle id="506" depart="50.60">
        <route edges="7:5 5:3"/>
    </vehicle>
    <vehicle id="508" depart="50.80">
        <route edges="10:0 0:1 1:2 2:3 3:5 5:7"/>
    </vehicle>
    <vehicle id="509" depart="50.90">
        <route edges="7:5 5:3 3:2 2:1 1:0 0:8"/>
    </vehicle>
    <vehicle id="511" depart="51.10">
        <route edges="13:12 12:1 1:2 2:3 3:5 5:7"/>
    </vehicle>
    <vehicle id="513" depart="51.30">
        <route edges="11:10 10:0 0:1 1:2 2:3 3:5"/>
    </vehicle>
    <vehicle id="514" depart="51.40">
        <route edges="13:12 12:1 1:2 2:3 3:5 5:7"/>
    </vehicle>
    <vehicle id="518" depart="51.80">
        <route edges="5:3 3:2 2:1 1:0 0:4 4:6"/>
    </vehicle>
    <vehicle id="519" depart="51.90">