<?xml version="1.0" encoding="UTF-8"?>

<!-- generated on Thu Oct 23 22:34:53 2014 by SUMO duarouter Version 0.18.0
<?xml version="1.0" encoding="UTF-8"?>

<configuration xmlns:xsi="http://www.w3.org/2001/XMLSchema-instance" xsi:noNamespaceSchemaLocation="http://sumo.sf.net/xsd/duarouterConfiguration.xsd">

    <input>
        <net-file value="corridor.net.xml"/>
        <trip-files value="experimentos/corridor.p1.0.9.trips.xml"/>
    </input>

    <output>
        <output-file value="experimentos/corridor.p1.0.9.rou.xml"/>
    </output>

    <processing>
        <ignore-errors value="true"/>
    </processing>

    <random_number>
        <random value="true"/>
    </random_number>

</configuration>
-->

<routes xmlns:xsi="http://www.w3.org/2001/XMLSchema-instance" xsi:noNamespaceSchemaLocation="http://sumo.sf.net/xsd/routes_file.xsd">
    <vehicle id="1" depart="1.00">
        <route edges="6:4 4:0 0:1 1:2 2:3 3:18 18:19"/>
    </vehicle>
    <vehicle id="3" depart="3.00">
        <route edges="7:5 5:3 3:2 2:1"/>
    </vehicle>
    <vehicle id="5" depart="5.00">
        <route edges="7:5 5:3 3:2 2:1 1:0 0:8 8:9"/>
    </vehicle>
    <vehicle id="7" depart="7.00">
        <route edges="0:8 8:9"/>
    </vehicle>
    <vehicle id="8" depart="8.00">
        <route edges="17:16 16:3 3:2 2:1 1:0 0:4"/>
    </vehicle>
    <vehicle id="10" depart="10.00">
        <route edges="1:0 0:4"/>
    </vehicle>
    <vehicle id="11" depart="11.00">
        <route edges="7:5 5:3 3:2 2:1 1:0 0:4 4:6"/>
    </vehicle>
    <vehicle id="13" depart="13.00">
        <route edges="17:16 16:3 3:18 18:19"/>
    </vehicle>
    <vehicle id="14" depart="14.00">
        <route edges="6:4 4:0 0:1 1:2 2:3 3:5 5:7"/>
    </vehicle>
    <vehicle id="15" depart="15.00">
        <route edges="6:4 4:0 0:1 1:2"/>
    </vehicle>
    <vehicle id="17" depart="17.00">
        <route edges="0:1 1:2 2:3 3:16 16:17"/>
    </vehicle>
    <vehicle id="18" depart="18.00">
        <route edges="13:12 12:1 1:2 2:3 3:5"/>
    </vehicle>
    <vehicle id="19" depart="19.00">
        <route edges="1:2"/>
    </vehicle>
    <vehicle id="21" depart="21.00">
        <route edges="7:5 5:3 3:2 2:1 1:0 0:10 10:11"/>
    </vehicle>
    <vehicle id="23" depart="23.00">
        <route edges="8:0 0:1 1:12 12:13"/>
    </vehicle>
    <vehicle id="25" depart="25.00">
        <route edges="8:0 0:4 4:6"/>
    </vehicle>
    <vehicle id="26" depart="26.00">
        <route edges="0:1"/>
    </vehicle>
    <vehicle id="28" depart="28.00">
        <route edges="5:3 3:2 2:1 1:0 0:4 4:6"/>
    </vehicle>
    <vehicle id="29" depart="29.00">
        <route edges="0:1 1:2 2:3 3:16 16:17"/>
    </vehicle>
    <vehicle id="30" depart="30.00">
        <route edges="17:16 16:3 3:2 2:1 1:0 0:4"/>
    </vehicle>
    <vehicle id="33" depart="33.00">
        <route edges="3:2 2:1 1:0 0:4 4:6"/>
    </vehicle>
    <vehicle id="37" depart="37.00">
        <route edges="15:14 14:2 2:3 3:16 16:17"/>
    </vehicle>
    <vehicle id="39" depart="39.00">
        <route edges="6:4 4:0 0:1 1:2 2:3 3:5 5:7"/>
    </vehicle>
    <vehicle id="40" depart="40.00">
        <route edges="17:16 16:3 3:2 2:1"/>
    </vehicle>
    <vehicle id="44" depart="44.00">
        <route edges="2:1"/>
    </vehicle>
    <vehicle id="46" depart="46.00">
        <route edges="15:14 14:2 2:3 3:5 5:7"/>
    </vehicle>
    <vehicle id="48" depart="48.00">
        <route edges="10:0 0:8 8:9"/>
    </vehicle>
    <vehicle id="49" depart="49.00">
        <route edges="3:2 2:14 14:15"/>
    </vehicle>
    <vehicle id="51" depart="51.00">
        <route edges="13:12 12:1 1:2 2:14"/>
    </vehicle>
    <vehicle id="52" depart="52.00">
        <route edges="13:12 12:1 1:2 2:3 3:5 5:7"/>
    </vehicle>
    <vehicle id="53" depart="53.00">
        <route edges="19:18 18:3 3:5 5:7"/>
    </vehicle>
    <vehicle id="57" depart="57.00">
        <route edges="14:2 2:3 3:5 5:7"/>
    </vehicle>
    <vehicle id="61" depart="61.00">
        <route edges="13:12 12:1 1:0 0:8 8:9"/>
    </vehicle>
    <vehicle id="62" depart="62.00">
        <route edges="6:4 4:0 0:1"/>
    </vehicle>
    <vehicle id="63" depart="63.00">
        <route edges="7:5 5:3 3:18 18:19"/>
    </vehicle>
    <vehicle id="67" depart="67.00">
        <route edges="6:4 4:0 0:8 8:9"/>
    </vehicle>
    <vehicle id="68" depart="68.00">
        <route edges="3:5 5:7"/>
    </vehicle>
    <vehicle id="72" depart="72.00">
        <route edges="13:12 12:1 1:2 2:3 3:5 5:7"/>
    </vehicle>
    <vehicle id="74" depart="74.00">
        <route edges="0:4"/>
    </vehicle>
    <vehicle id="75" depart="75.00">
        <route edges="12:1 1:0 0:4 4:6"/>
    </vehicle>
    <vehicle id="76" depart="76.00">
        <route edges="14:2 2:3"/>
    </vehicle>
    <vehicle id="78" depart="78.00">
        <route edges="7:5 5:3 3:2 2:1 1:0 0:8"/>
    </vehicle>
    <vehicle id="79" depart="79.00">
        <route edges="6:4 4:0 0:10 10:11"/>
    </vehicle>
    <vehicle id="80" depart="80.00">
        <route edges="17:16 16:3 3:2"/>
    </vehicle>
    <vehicle id="81" depart="81.00">
        <route edges="6:4 4:0 0:1"/>
    </vehicle>
    <vehicle id="82" depart="82.00">
        <route edges="17:16 16:3 3:2 2:1 1:0 0:8"/>
    </vehicle>
    <vehicle id="83" depart="83.00">
        <route edges="13:12 12:1 1:2 2:14 14:15"/>
    </vehicle>
    <vehicle id="88" depart="88.00">
        <route edges="9:8 8:0 0:4 4:6"/>
    </vehicle>
    <vehicle id="89" depart="89.00">
        <route edges="7:5 5:3 3:2 2:14 14:15"/>
    </vehicle>
    <vehicle id="90" depart="90.00">
        <route edges="9:8 8:0 0:1 1:2 2:3 3:5 5:7"/>
    </vehicle>
    <vehicle id="92" depart="92.00">
        <route edges="6:4 4:0 0:1 1:2 2:3 3:18 18:19"/>
    </vehicle>
    <vehicle id="93" depart="93.00">
        <route edges="1:12 12:13"/>
    </vehicle>
    <vehicle id="94" depart="94.00">
        <route edges="11:10 10:0 0:8 8:9"/>
    </vehicle>
    <vehicle id="95" depart="95.00">
        <route edges="14:2 2:3 3:5"/>
    </vehicle>
    <vehicle id="96" depart="96.00">
        <route edges="15:14 14:2 2:3 3:16 16:17"/>
    </vehicle>
    <vehicle id="99" depart="99.00">
        <route edges="3:2 2:1 1:0 0:8"/>
    </vehicle>
    <vehicle id="100" depart="100.00">
        <route edges="7:5 5:3 3:2 2:1 1:0 0:4 4:6"/>
    </vehicle>
    <vehicle id="101" depart="101.00">
        <route edges="16:3 3:2 2:14 14:15"/>
    </vehicle>
    <vehicle id="102" depart="102.00">
        <route edges="16:3 3:2 2:1 1:0 0:4 4:6"/>
    </vehicle>
    <vehicle id="103" depart="103.00">
        <route edges="13:12 12:1 1:2 2:14 14:15"/>
    </vehicle>
    <vehicle id="104" depart="104.00">
        <route edges="13:12 12:1 1:2 2:14 14:15"/>
    </vehicle>
    <vehicle id="105" depart="105.00">
        <route edges="7:5 5:3 3:2 2:1 1:0 0:4 4:6"/>
    </vehicle>
    <vehicle id="108" depart="108.00">
        <route edges="4:0 0:10 10:11"/>
    </vehicle>
    <vehicle id="110" depart="110.00">
        <route edges="4:0 0:1 1:2 2:3"/>
    </vehicle>
    <vehicle id="111" depart="111.00">
        <route edges="3:2 2:1 1:0 0:4 4:6"/>
    </vehicle>
    <vehicle id="112" depart="112.00">
        <route edges="3:2 2:1 1:0 0:10"/>
    </vehicle>
    <vehicle id="114" depart="114.00">
        <route edges="13:12 12:1 1:2 2:3 3:5"/>
    </vehicle>
    <vehicle id="115" depart="115.00">
        <route edges="2:3 3:5"/>
    </vehicle>
    <vehicle id="116" depart="116.00">
        <route edges="13:12 12:1"/>
    </vehicle>
    <vehicle id="119" depart="119.00">
        <route edges="19:18 18:3 3:2 2:1 1:0 0:10"/>
    </vehicle>
    <vehicle id="120" depart="120.00">
        <route edges="6:4 4:0 0:8 8:9"/>
    </vehicle>
    <vehicle id="121" depart="121.00">
        <route edges="4:0 0:1 1:2 2:3 3:5"/>
    </vehicle>
    <vehicle id="122" depart="122.00">
        <route edges="10:0 0:1 1:2 2:3 3:5"/>
    </vehicle>
    <vehicle id="123" depart="123.00">
        <route edges="15:14 14:2 2:1 1:12 12:13"/>
    </vehicle>
    <vehicle id="124" depart="124.00">
        <route edges="4:0 0:1 1:2 2:3 3:5 5:7"/>
    </vehicle>
    <vehicle id="125" depart="125.00">
        <route edges="7:5 5:3 3:2 2:1 1:0 0:10 10:11"/>
    </vehicle>
    <vehicle id="126" depart="126.00">
        <route edges="9:8 8:0 0:1 1:12"/>
    </vehicle>
    <vehicle id="131" depart="131.00">
        <route edges="17:16 16:3 3:2 2:1 1:0 0:10 10:11"/>
    </vehicle>
    <vehicle id="132" depart="132.00">
        <route edges="13:12 12:1 1:2 2:3 3:5"/>
    </vehicle>
    <vehicle id="133" depart="133.00">
        <route edges="7:5 5:3 3:2 2:1 1:12 12:13"/>
    </vehicle>
    <vehicle id="134" depart="134.00">
        <route edges="17:16 16:3 3:2 2:14 14:15"/>
    </vehicle>
    <vehicle id="135" depart="135.00">
        <route edges="1:2 2:3 3:5 5:7"/>
    </vehicle>
    <vehicle id="136" depart="136.00">
        <route edges="15:14 14:2 2:3 3:5 5:7"/>
    </vehicle>
    <vehicle id="138" depart="138.00">
        <route edges="13:12 12:1 1:0 0:4 4:6"/>
    </vehicle>
    <vehicle id="140" depart="140.00">
        <route edges="9:8 8:0 0:1 1:2 2:14"/>
    </vehicle>
    <vehicle id="142" depart="142.00">
        <route edges="6:4 4:0 0:1 1:2 2:14"/>
    </vehicle>
    <vehicle id="150" depart="150.00">
        <route edges="5:3 3:2 2:1 1:0 0:4 4:6"/>
    </vehicle>
    <vehicle id="152" depart="152.00">
        <route edges="13:12 12:1 1:2 2:3 3:16"/>
    </vehicle>
    <vehicle id="154" depart="154.00">
        <route edges="9:8 8:0 0:4"/>
    </vehicle>
    <vehicle id="156" depart="156.00">
        <route edges="5:3 3:2 2:1 1:0 0:4"/>
    </vehicle>
    <vehicle id="157" depart="157.00">
        <route edges="8:0 0:4"/>
    </vehicle>
    <vehicle id="158" depart="158.00">
        <route edges="19:18 18:3 3:2 2:1 1:0 0:4 4:6"/>
    </vehicle>
    <vehicle id="159" depart="159.00">
        <route edges="9:8 8:0 0:1 1:2 2:3 3:16 16:17"/>
    </vehicle>
    <vehicle id="161" depart="161.00">
        <route edges="11:10 10:0 0:8 8:9"/>
    </vehicle>
    <vehicle id="163" depart="163.00">
        <route edges="13:12 12:1 1:2 2:3 3:5 5:7"/>
    </vehicle>
    <vehicle id="164" depart="164.00">
        <route edges="9:8 8:0 0:1 1:2 2:3 3:5"/>
    </vehicle>
    <vehicle id="166" depart="166.00">
        <route edges="13:12 12:1 1:0 0:4"/>
    </vehicle>
    <vehicle id="168" depart="168.00">
        <route edges="6:4 4:0 0:1 1:2 2:3 3:18"/>
    </vehicle>
    <vehicle id="171" depart="171.00">
        <route edges="5:3 3:2 2:1 1:0 0:4 4:6"/>
    </vehicle>
    <vehicle id="173" depart="173.00">
        <route edges="5:3 3:2 2:1 1:0 0:4"/>
    </vehicle>
    <vehicle id="179" depart="179.00">
        <route edges="5:3 3:18 18:19"/>
    </vehicle>
    <vehicle id="182" depart="182.00">
        <route edges="15:14 14:2 2:3 3:5 5:7"/>
    </vehicle>
    <vehicle id="184" depart="184.00">
        <route edges="3:2 2:1"/>
    </vehicle>
    <vehicle id="185" depart="185.00">
        <route edges="1:0 0:4"/>
    </vehicle>
    <vehicle id="187" depart="187.00">
        <route edges="15:14 14:2 2:1 1:0 0:4"/>
    </vehicle>
    <vehicle id="189" depart="189.00">
        <route edges="11:10 10:0 0:1 1:2 2:3 3:5"/>
    </vehicle>
    <vehicle id="190" depart="190.00">
        <route edges="17:16 16:3 3:2 2:1 1:12 12:13"/>
    </vehicle>
    <vehicle id="191" depart="191.00">
        <route edges="1:0 0:4 4:6"/>
    </vehicle>
    <vehicle id="192" depart="192.00">
        <route edges="5:3 3:2 2:1 1:0 0:10 10:11"/>
    </vehicle>
    <vehicle id="193" depart="193.00">
        <route edges="3:2 2:14 14:15"/>
    </vehicle>
    <vehicle id="197" depart="197.00">
        <route edges="7:5 5:3 3:2 2:1 1:0 0:4"/>
    </vehicle>
    <vehicle id="198" depart="198.00">
        <route edges="7:5 5:3 3:2 2:14 14:15"/>
    </vehicle>
    <vehicle id="200" depart="200.00">
        <route edges="16:3 3:5 5:7"/>
    </vehicle>
    <vehicle id="207" depart="207.00">
        <route edges="6:4 4:0 0:1 1:2 2:3 3:5 5:7"/>
    </vehicle>
    <vehicle id="209" depart="209.00">
        <route edges="8:0 0:1 1:12 12:13"/>
    </vehicle>
    <vehicle id="210" depart="210.00">
        <route edges="2:1 1:12 12:13"/>
    </vehicle>
    <vehicle id="211" depart="211.00">
        <route edges="10:0 0:1 1:2 2:3 3:5"/>
    </vehicle>
    <vehicle id="212" depart="212.00">
        <route edges="6:4 4:0 0:1 1:2 2:3 3:16 16:17"/>
    </vehicle>
    <vehicle id="213" depart="213.00">
        <route edges="10:0 0:1 1:2 2:14 14:15"/>
    </vehicle>
    <vehicle id="216" depart="216.00">
        <route edges="11:10 10:0 0:1 1:2 2:3"/>
    </vehicle>
    <vehicle id="217" depart="217.00">
        <route edges="14:2 2:3 3:5 5:7"/>
    </vehicle>
    <vehicle id="220" depart="220.00">
        <route edges="5:3 3:18 18:19"/>
    </vehicle>
    <vehicle id="225" depart="225.00">
        <route edges="11:10 10:0 0:1 1:2 2:14 14:15"/>
    </vehicle>
    <vehicle id="227" depart="227.00">
        <route edges="6:4 4:0 0:10 10:11"/>
    </vehicle>
    <vehicle id="228" depart="228.00">
        <route edges="11:10 10:0 0:4 4:6"/>
    </vehicle>
    <vehicle id="232" depart="232.00">
        <route edges="11:10 10:0 0:1 1:2 2:3 3:5 5:7"/>
    </vehicle>
    <vehicle id="233" depart="233.00">
        <route edges="13:12 12:1 1:2 2:3 3:5 5:7"/>
    </vehicle>
    <vehicle id="234" depart="234.00">
        <route edges="9:8 8:0 0:4 4:6"/>
    </vehicle>
    <vehicle id="235" depart="235.00">
        <route edges="4:0 0:8 8:9"/>
    </vehicle>
    <vehicle id="237" depart="237.00">
        <route edges="7:5 5:3 3:16"/>
    </vehicle>
    <vehicle id="239" depart="239.00">
        <route edges="9:8 8:0 0:4 4:6"/>
    </vehicle>
    <vehicle id="240" depart="240.00">
        <route edges="17:16 16:3 3:2 2:1 1:12 12:13"/>
    </vehicle>
    <vehicle id="241" depart="241.00">
        <route edges="12:1 1:2 2:3 3:5"/>
    </vehicle>
    <vehicle id="243" depart="243.00">
        <route edges="5:3 3:2 2:1 1:0 0:4 4:6"/>
    </vehicle>
    <vehicle id="251" depart="251.00">
        <route edges="13:12 12:1 1:0"/>
    </vehicle>
    <vehicle id="252" depart="252.00">
        <route edges="2:1 1:0 0:4 4:6"/>
    </vehicle>
    <vehicle id="253" depart="253.00">
        <route edges="1:2 2:3 3:5 5:7"/>
    </vehicle>
    <vehicle id="254" depart="254.00">
        <route edges="13:12 12:1 1:2 2:14 14:15"/>
    </vehicle>
    <vehicle id="255" depart="255.00">
        <route edges="16:3 3:2 2:1 1:0 0:10 10:11"/>
    </vehicle>
    <vehicle id="257" depart="257.00">
        <route edges="7:5 5:3 3:2 2:1"/>
    </vehicle>
    <vehicle id="259" depart="259.00">
        <route edges="17:16 16:3 3:2 2:1 1:0 0:4 4:6"/>
    </vehicle>
    <vehicle id="261" depart="261.00">
        <route edges="3:2 2:1 1:0 0:8 8:9"/>
    </vehicle>
    <vehicle id="263" depart="263.00">
        <route edges="6:4 4:0 0:1 1:12 12:13"/>
    </vehicle>
    <vehicle id="265" depart="265.00">
        <route edges="6:4 4:0 0:1 1:2 2:14 14:15"/>
    </vehicle>
    <vehicle id="266" depart="266.00">
        <route edges="19:18 18:3 3:2 2:1 1:0"/>
    </vehicle>
    <vehicle id="267" depart="267.00">
        <route edges="10:0 0:4 4:6"/>
    </vehicle>
    <vehicle id="268" depart="268.00">
        <route edges="15:14 14:2 2:1 1:0 0:4"/>
    </vehicle>
    <vehicle id="270" depart="270.00">
        <route edges="8:0 0:1 1:2 2:3 3:18 18:19"/>
    </vehicle>
    <vehicle id="271" depart="271.00">
        <route edges="18:3 3:2 2:1 1:0 0:10"/>
    </vehicle>
    <vehicle id="273" depart="273.00">
        <route edges="6:4 4:0 0:1 1:2 2:3 3:18 18:19"/>
    </vehicle>
    <vehicle id="276" depart="276.00">
        <route edges="6:4 4:0 0:10"/>
    </vehicle>
    <vehicle id="277" depart="277.00">
        <route edges="5:3 3:2 2:1 1:0 0:4 4:6"/>
    </vehicle>
    <vehicle id="280" depart="280.00">
        <route edges="18:3 3:2 2:1 1:0 0:8"/>
    </vehicle>
    <vehicle id="286" depart="286.00">
        <route edges="15:14 14:2 2:1 1:0 0:4 4:6"/>
    </vehicle>
    <vehicle id="288" depart="288.00">
        <route edges="6:4 4:0 0:1 1:2 2:3 3:5"/>
    </vehicle>
    <vehicle id="289" depart="289.00">
        <route edges="6:4 4:0 0:10 10:11"/>
    </vehicle>
    <vehicle id="291" depart="291.00">
        <route edges="19:18 18:3 3:5 5:7"/>
    </vehicle>
    <vehicle id="294" depart="294.00">
        <route edges="15:14 14:2 2:3 3:5 5:7"/>
    </vehicle>
    <vehicle id="295" depart="295.00">
        <route edges="7:5 5:3 3:2 2:1 1:0 0:10 10:11"/>
    </vehicle>
    <vehicle id="296" depart="296.00">
        <route edges="13:12 12:1 1:2 2:3 3:18 18:19"/>
    </vehicle>
    <vehicle id="299" depart="299.00">
        <route edges="19:18 18:3 3:5 5:7"/>
    </vehicle>
    <vehicle id="301" depart="301.00">
        <route edges="19:18 18:3 3:2 2:1 1:0 0:10 10:11"/>
    </vehicle>
    <vehicle id="304" depart="304.00">
        <route edges="6:4 4:0 0:1 1:2 2:14 14:15"/>
    </vehicle>
    <vehicle id="306" depart="306.00">
        <route edges="7:5 5:3 3:2"/>
    </vehicle>
    <vehicle id="308" depart="308.00">
        <route edges="16:3 3:2 2:1 1:0 0:10 10:11"/>
    </vehicle>
    <vehicle id="309" depart="309.00">
        <route edges="15:14 14:2 2:3"/>
    </vehicle>
    <vehicle id="310" depart="310.00">
        <route edges="11:10 10:0 0:1 1:2 2:3 3:16"/>
    </vehicle>
    <vehicle id="311" depart="311.00">
        <route edges="19:18 18:3 3:2 2:14 14:15"/>
    </vehicle>
    <vehicle id="312" depart="312.00">
        <route edges="7:5 5:3 3:2 2:1 1:0 0:10"/>
    </vehicle>
    <vehicle id="314" depart="314.00">
        <route edges="18:3 3:5 5:7"/>
    </vehicle>
    <vehicle id="316" depart="316.00">
        <route edges="3:5 5:7"/>
    </vehicle>
    <vehicle id="317" depart="317.00">
        <route edges="16:3 3:2 2:1 1:12 12:13"/>
    </vehicle>
    <vehicle id="318" depart="318.00">
        <route edges="6:4 4:0 0:8 8:9"/>
    </vehicle>
    <vehicle id="319" depart="319.00">
        <route edges="17:16 16:3 3:2 2:14"/>
    </vehicle>
    <vehicle id="320" depart="320.00">
        <route edges="4:0 0:1 1:2 2:3 3:16"/>
    </vehicle>
    <vehicle id="321" depart="321.00">
        <route edges="3:2 2:14 14:15"/>
    </vehicle>
    <vehicle id="322" depart="322.00">
        <route edges="13:12 12:1 1:0 0:8"/>
    </vehicle>
    <vehicle id="323" depart="323.00">
        <route edges="19:18 18:3 3:2 2:1 1:0 0:8"/>
    </vehicle>
    <vehicle id="324" depart="324.00">
        <route edges="19:18 18:3 3:2 2:1 1:0 0:4"/>
    </vehicle>
    <vehicle id="326" depart="326.00">
        <route edges="13:12 12:1 1:2 2:3 3:5 5:7"/>
    </vehicle>
    <vehicle id="328" depart="328.00">
        <route edges="7:5 5:3 3:2 2:1 1:12"/>
    </vehicle>
    <vehicle id="329" depart="329.00">
        <route edges="4:0 0:1 1:2 2:3 3:16"/>
    </vehicle>
    <vehicle id="330" depart="330.00">
        <route edges="13:12 12:1 1:2 2:3 3:5 5:7"/>
    </vehicle>
    <vehicle id="331" depart="331.00">
        <route edges="13:12 12:1 1:2 2:3 3:5"/>
    </vehicle>
    <vehicle id="334" depart="334.00">
        <route edges="4:0 0:1 1:2 2:14 14:15"/>
    </vehicle>
    <vehicle id="335" depart="335.00">
        <route edges="7:5 5:3 3:16 16:17"/>
    </vehicle>
    <vehicle id="337" depart="337.00">
        <route edges="6:4 4:0 0:1 1:2 2:3 3:18"/>
    </vehicle>
    <vehicle id="338" depart="338.00">
        <route edges="9:8 8:0 0:1 1:12 12:13"/>
    </vehicle>
    <vehicle id="347" depart="347.00">
        <route edges="14:2 2:3 3:16 16:17"/>
    </vehicle>
    <vehicle id="349" depart="349.00">
        <route edges="15:14 14:2 2:1 1:0 0:8 8:9"/>
    </vehicle>
    <vehicle id="350" depart="350.00">
        <route edges="15:14 14:2 2:1 1:0 0:4 4:6"/>
    </vehicle>
    <vehicle id="352" depart="352.00">
        <route edges="15:14 14:2 2:1 1:12 12:13"/>
    </vehicle>
    <vehicle id="353" depart="353.00">
        <route edges="11:10 10:0 0:1 1:2"/>
    </vehicle>
    <vehicle id="354" depart="354.00">
        <route edges="17:16 16:3 3:2 2:1 1:12 12:13"/>
    </vehicle>
    <vehicle id="355" depart="355.00">
        <route edges="7:5 5:3 3:2 2:1 1:0 0:10 10:11"/>
    </vehicle>
    <vehicle id="358" depart="358.00">
        <route edges="15:14 14:2 2:1 1:0 0:8 8:9"/>
    </vehicle>
    <vehicle id="360" depart="360.00">
        <route edges="17:16 16:3 3:5 5:7"/>
    </vehicle>
    <vehicle id="365" depart="365.00">
        <route edges="13:12 12:1 1:0 0:4 4:6"/>
    </vehicle>
    <vehicle id="368" depart="368.00">
        <route edges="3:2"/>
    </vehicle>
    <vehicle id="369" depart="369.00">
        <route edges="14:2 2:3 3:5 5:7"/>
    </vehicle>
    <vehicle id="370" depart="370.00">
        <route edges="17:16 16:3 3:2 2:14 14:15"/>
    </vehicle>
    <vehicle id="371" depart="371.00">
        <route edges="3:2 2:1 1:0 0:4 4:6"/>
    </vehicle>
    <vehicle id="372" depart="372.00">
        <route edges="17:16 16:3 3:2 2:14 14:15"/>
    </vehicle>
    <vehicle id="373" depart="373.00">
        <route edges="17:16 16:3 3:2 2:1 1:0 0:4"/>
    </vehicle>
    <vehicle id="374" depart="374.00">
        <route edges="13:12 12:1 1:0 0:8 8:9"/>
    </vehicle>
    <vehicle id="378" depart="378.00">
        <route edges="17:16 16:3 3:2 2:1 1:0"/>
    </vehicle>
    <vehicle id="379" depart="379.00">
        <route edges="12:1 1:0 0:4 4:6"/>
    </vehicle>
    <vehicle id="380" depart="380.00">
        <route edges="3:2"/>
    </vehicle>
    <vehicle id="381" depart="381.00">
        <route edges="4:0 0:8 8:9"/>
    </vehicle>
    <vehicle id="382" depart="382.00">
        <route edges="1:0"/>
    </vehicle>
    <vehicle id="384" depart="384.00">
        <route edges="3:5 5:7"/>
    </vehicle>
    <vehicle id="385" depart="385.00">
        <route edges="4:0 0:1 1:2 2:3 3:5 5:7"/>
    </vehicle>
    <vehicle id="387" depart="387.00">
        <route edges="6:4 4:0 0:10 10:11"/>
    </vehicle>
    <vehicle id="388" depart="388.00">
        <route edges="9:8 8:0 0:1 1:2 2:3 3:5 5:7"/>
    </vehicle>
    <vehicle id="390" depart="390.00">
        <route edges="2:3 3:5"/>
    </vehicle>
    <vehicle id="392" depart="392.00">
        <route edges="18:3 3:2 2:1 1:0 0:4"/>
    </vehicle>
    <vehicle id="393" depart="393.00">
        <route edges="19:18 18:3 3:2 2:14 14:15"/>
    </vehicle>
    <vehicle id="394" depart="394.00">
        <route edges="2:3 3:18"/>
    </vehicle>
    <vehicle id="397" depart="397.00">
        <route edges="1:0 0:10 10:11"/>
    </vehicle>
    <vehicle id="398" depart="398.00">
        <route edges="17:16 16:3 3:5 5:7"/>
    </vehicle>
    <vehicle id="401" depart="401.00">
        <route edges="11:10 10:0 0:1 1:2 2:3 3:5"/>
    </vehicle>
    <vehicle id="402" depart="402.00">
        <route edges="13:12 12:1 1:0 0:8"/>
    </vehicle>
    <vehicle id="403" depart="403.00">
        <route edges="13:12 12:1 1:0 0:4 4:6"/>
    </vehicle>
    <vehicle id="404" depart="404.00">
        <route edges="18:3 3:5"/>
    </vehicle>
    <vehicle id="405" depart="405.00">
        <route edges="19:18 18:3 3:2 2:1 1:0 0:8 8:9"/>
    </vehicle>
    <vehicle id="406" depart="406.00">
        <route edges="9:8 8:0 0:10 10:11"/>
    </vehicle>
    <vehicle id="407" depart="407.00">
        <route edges="17:16 16:3 3:18 18:19"/>
    </vehicle>
    <vehicle id="408" depart="408.00">
        <route edges="4:0 0:1 1:2 2:14"/>
    </vehicle>
    <vehicle id="409" depart="409.00">
        <route edges="6:4 4:0 0:1 1:2 2:3 3:5"/>
    </vehicle>
    <vehicle id="413" depart="413.00">
        <route edges="9:8 8:0 0:1 1:2 2:3 3:16 16:17"/>
    </vehicle>
    <vehicle id="414" depart="414.00">
        <route edges="0:1 1:2 2:3 3:5 5:7"/>
    </vehicle>
    <vehicle id="415" depart="415.00">
        <route edges="19:18 18:3 3:2 2:1 1:0 0:4 4:6"/>
    </vehicle>
    <vehicle id="417" depart="417.00">
        <route edges="0:1 1:2 2:3 3:5 5:7"/>
    </vehicle>
    <vehicle id="419" depart="419.00">
        <route edges="7:5 5:3 3:2 2:1 1:0 0:10"/>
    </vehicle>
    <vehicle id="420" depart="420.00">
        <route edges="9:8 8:0 0:4"/>
    </vehicle>
    <vehicle id="421" depart="421.00">
        <route edges="15:14 14:2 2:3 3:16 16:17"/>
    </vehicle>
    <vehicle id="422" depart="422.00">
        <route edges="4:0 0:1 1:12 12:13"/>
    </vehicle>
    <vehicle id="423" depart="423.00">
        <route edges="8:0 0:4 4:6"/>
    </vehicle>
    <vehicle id="429" depart="429.00">
        <route edges="2:1 1:0"/>
    </vehicle>
    <vehicle id="430" depart="430.00">
        <route edges="15:14 14:2 2:1 1:0 0:4 4:6"/>
    </vehicle>
    <vehicle id="431" depart="431.00">
        <route edges="7:5 5:3 3:2 2:1 1:0 0:4 4:6"/>
    </vehicle>
    <vehicle id="432" depart="432.00">
        <route edges="15:14 14:2 2:1 1:0"/>
    </vehicle>
    <vehicle id="434" depart="434.00">
        <route edges="7:5 5:3 3:2 2:1 1:0 0:10 10:11"/>
    </vehicle>
    <vehicle id="435" depart="435.00">
        <route edges="9:8 8:0 0:1 1:2 2:3 3:5 5:7"/>
    </vehicle>
    <vehicle id="436" depart="436.00">
        <route edges="6:4 4:0 0:1 1:2 2:3 3:18 18:19"/>
    </vehicle>
    <vehicle id="437" depart="437.00">
        <route edges="13:12 12:1 1:0"/>
    </vehicle>
    <vehicle id="438" depart="438.00">
        <route edges="17:16 16:3 3:2 2:1 1:12 12:13"/>
    </vehicle>
    <vehicle id="440" depart="440.00">
        <route edges="13:12 12:1 1:0 0:10 10:11"/>
    </vehicle>
    <vehicle id="441" depart="441.00">
        <route edges="9:8 8:0 0:4 4:6"/>
    </vehicle>
    <vehicle id="442" depart="442.00">
        <route edges="6:4 4:0 0:1 1:2 2:3 3:16"/>
    </vehicle>
    <vehicle id="443" depart="443.00">
        <route edges="11:10 10:0 0:1 1:2 2:3 3:16"/>
    </vehicle>
    <vehicle id="445" depart="445.00">
        <route edges="6:4 4:0 0:1"/>
    </vehicle>
    <vehicle id="446" depart="446.00">
        <route edges="8:0 0:4 4:6"/>
    </vehicle>
    <vehicle id="447" depart="447.00">
        <route edges="12:1 1:2 2:3 3:5 5:7"/>
    </vehicle>
    <vehicle id="448" depart="448.00">
        <route edges="11:10 10:0 0:1 1:2 2:3 3:16 16:17"/>
    </vehicle>
    <vehicle id="450" depart="450.00">
        <route edges="10:0 0:1 1:2 2:14 14:15"/>
    </vehicle>
    <vehicle id="452" depart="452.00">
        <route edges="9:8 8:0 0:1 1:2 2:3 3:18 18:19"/>
    </vehicle>
    <vehicle id="455" depart="455.00">
        <route edges="17:16 16:3 3:2 2:1 1:0 0:4 4:6"/>
    </vehicle>
    <vehicle id="456" depart="456.00">
        <route edges="7:5 5:3 3:18 18:19"/>
    </vehicle>
    <vehicle id="457" depart="457.00">
        <route edges="17:16 16:3 3:2 2:1 1:0 0:4 4:6"/>
    </vehicle>
    <vehicle id="458" depart="458.00">
        <route edges="17:16 16:3 3:2 2:1 1:0"/>
    </vehicle>
    <vehicle id="460" depart="460.00">
        <route edges="6:4 4:0 0:1 1:2 2:3 3:5 5:7"/>
    </vehicle>
    <vehicle id="462" depart="462.00">
        <route edges="3:2 2:1 1:0 0:4 4:6"/>
    </vehicle>
    <vehicle id="463" depart="463.00">
        <route edges="19:18 18:3 3:2"/>
    </vehicle>
    <vehicle id="464" depart="464.00">
        <route edges="19:18 18:3 3:2 2:14"/>
    </vehicle>
    <vehicle id="465" depart="465.00">
        <route edges="19:18 18:3 3:2 2:1"/>
    </vehicle>
    <vehicle id="467" depart="467.00">
        <route edges="19:18 18:3 3:2 2:1 1:0 0:10"/>
    </vehicle>
    <vehicle id="471" depart="471.00">
        <route edges="7:5 5:3 3:2 2:1 1:0 0:4 4:6"/>
    </vehicle>
    <vehicle id="472" depart="472.00">
        <route edges="13:12 12:1 1:0 0:8 8:9"/>
    </vehicle>
    <vehicle id="473" depart="473.00">
        <route edges="19:18 18:3 3:2 2:1 1:12 12:13"/>
    </vehicle>
    <vehicle id="474" depart="474.00">
        <route edges="0:4 4:6"/>
    </vehicle>
    <vehicle id="475" depart="475.00">
        <route edges="7:5 5:3 3:16"/>
    </vehicle>
    <vehicle id="476" depart="476.00">
        <route edges="17:16 16:3 3:5 5:7"/>
    </vehicle>
    <vehicle id="477" depart="477.00">
        <route edges="6:4 4:0 0:10 10:11"/>
    </vehicle>
    <vehicle id="479" depart="479.00">
        <route edges="15:14 14:2 2:1 1:0 0:8 8:9"/>
    </vehicle>
    <vehicle id="481" depart="481.00">
        <route edges="2:3 3:5"/>
    </vehicle>
    <vehicle id="482" depart="482.00">
        <route edges="3:2 2:1 1:0 0:8 8:9"/>
    </vehicle>
    <vehicle id="486" depart="486.00">
        <route edges="8:0 0:1 1:2 2:3 3:5"/>
    </vehicle>
    <vehicle id="488" depart="488.00">
        <route edges="18:3 3:2 2:1 1:0 0:10 10:11"/>
    </vehicle>
    <vehicle id="489" depart="489.00">
        <route edges="2:1 1:12 12:13"/>
    </vehicle>
    <vehicle id="490" depart="490.00">
        <route edges="6:4 4:0 0:1 1:2 2:3 3:5"/>
    </vehicle>
    <vehicle id="491" depart="491.00">
        <route edges="6:4 4:0 0:1"/>
    </vehicle>
    <vehicle id="492" depart="492.00">
        <route edges="17:16 16:3 3:18 18:19"/>
    </vehicle>
    <vehicle id="493" depart="493.00">
        <route edges="15:14 14:2 2:1 1:0 0:4"/>
    </vehicle>
    <vehicle id="495" depart="495.00">
        <route edges="18:3 3:2 2:14 14:15"/>
    </vehicle>
    <vehicle id="496" depart="496.00">
        <route edges="12:1 1:0"/>
    </vehicle>
    <vehicle id="497" depart="497.00">
        <route edges="7:5 5:3 3:2 2:1 1:0 0:4 4:6"/>
    </vehicle>
    <vehicle id="498" depart="498.00">
        <route edges="2:1 1:0 0:4 4:6"/>
    </vehicle>
    <vehicle id="501" depart="501.00">
        <route edges="7:5 5:3 3:2 2:14 14:15"/>
    </vehicle>
    <vehicle id="503" depart="503.00">
        <route edges="2:3 3:16 16:17"/>
    </vehicle>
    <vehicle id="506" depart="506.00">
        <route edges="14:2 2:1"/>
    </vehicle>
    <vehicle id="507" depart="507.00">
        <route edges="1:0 0:4 4:6"/>
    </vehicle>
    <vehicle id="508" depart="508.00">
        <route edges="9:8 8:0 0:1 1:2 2:3 3:5 5:7"/>