<?xml version="1.0" encoding="UTF-8"?>

<!-- generated on Thu Oct 23 22:33:45 2014 by SUMO duarouter Version 0.18.0
<?xml version="1.0" encoding="UTF-8"?>

<configuration xmlns:xsi="http://www.w3.org/2001/XMLSchema-instance" xsi:noNamespaceSchemaLocation="http://sumo.sf.net/xsd/duarouterConfiguration.xsd">

    <input>
        <net-file value="corridor.net.xml"/>
        <trip-files value="experimentos/corridor.p0.1.7.trips.xml"/>
    </input>

    <output>
        <output-file value="experimentos/corridor.p0.1.7.rou.xml"/>
    </output>

    <processing>
        <ignore-errors value="true"/>
    </processing>

    <random_number>
        <random value="true"/>
    </random_number>

</configuration>
-->

<routes xmlns:xsi="http://www.w3.org/2001/XMLSchema-instance" xsi:noNamespaceSchemaLocation="http://sumo.sf.net/xsd/routes_file.xsd">
    <vehicle id="7" depart="0.70">
        <route edges="7:5 5:3 3:2"/>
    </vehicle>
    <vehicle id="8" depart="0.80">
        <route edges="0:1 1:12 12:13"/>
    </vehicle>
    <vehicle id="12" depart="1.20">
        <route edges="10:0 0:4 4:6"/>
    </vehicle>
    <vehicle id="13" depart="1.30">
        <route edges="2:3 3:16 16:17"/>
    </vehicle>
    <vehicle id="17" depart="1.70">
        <route edges="2:1 1:12 12:13"/>
    </vehicle>
    <vehicle id="19" depart="1.90">
        <route edges="6:4 4:0 0:1 1:2 2:3 3:18 18:19"/>
    </vehicle>
    <vehicle id="20" depart="2.00">
        <route edges="9:8 8:0 0:1 1:2 2:14 14:15"/>
    </vehicle>
    <vehicle id="21" depart="2.10">
        <route edges="9:8 8:0 0:4"/>
    </vehicle>
    <vehicle id="26" depart="2.60">
        <route edges="18:3 3:2 2:1 1:0 0:4"/>
    </vehicle>
    <vehicle id="31" depart="3.10">
        <route edges="6:4 4:0 0:1 1:2 2:14 14:15"/>
    </vehicle>
    <vehicle id="32" depart="3.20">
        <route edges="17:16 16:3 3:2 2:1 1:0 0:4 4:6"/>
    </vehicle>
    <vehicle id="33" depart="3.30">
        <route edges="6:4 4:0 0:1 1:2 2:3 3:16 16:17"/>
    </vehicle>
    <vehicle id="34" depart="3.40">
        <route edges="7:5 5:3 3:16 16:17"/>
    </vehicle>
    <vehicle id="35" depart="3.50">
        <route edges="7:5 5:3 3:2 2:1"/>
    </vehicle>
    <vehicle id="36" depart="3.60">
        <route edges="6:4 4:0 0:1 1:2 2:3 3:16 16:17"/>
    </vehicle>
    <vehicle id="37" depart="3.70">
        <route edges="2:1 1:0 0:4 4:6"/>
    </vehicle>
    <vehicle id="38" depart="3.80">
        <route edges="7:5 5:3 3:2 2:1 1:0 0:4 4:6"/>
    </vehicle>
    <vehicle id="39" depart="3.90">
        <route edges="11:10 10:0 0:1 1:2 2:3 3:18 18:19"/>
    </vehicle>
    <vehicle id="40" depart="4.00">
        <route edges="15:14 14:2 2:3 3:5 5:7"/>
    </vehicle>
    <vehicle id="41" depart="4.10">
        <route edges="13:12 12:1 1:2 2:3 3:16 16:17"/>
    </vehicle>
    <vehicle id="43" depart="4.30">
        <route edges="7:5 5:3 3:2 2:1 1:12 12:13"/>
    </vehicle>
    <vehicle id="44" depart="4.40">
        <route edges="13:12 12:1 1:2 2:3"/>
    </vehicle>
    <vehicle id="48" depart="4.80">
        <route edges="3:2 2:1"/>
    </vehicle>
    <vehicle id="49" depart="4.90">
        <route edges="7:5 5:3 3:2 2:1 1:0 0:10"/>
    </vehicle>
    <vehicle id="50" depart="5.00">
        <route edges="12:1 1:0 0:8 8:9"/>
    </vehicle>
    <vehicle id="51" depart="5.10">
        <route edges="6:4 4:0 0:1 1:2 2:14 14:15"/>
    </vehicle>
    <vehicle id="53" depart="5.30">
        <route edges="5:3 3:2 2:1 1:0 0:8 8:9"/>
    </vehicle>
    <vehicle id="54" depart="5.40">
        <route edges="13:12 12:1 1:2 2:14 14:15"/>
    </vehicle>
    <vehicle id="56" depart="5.60">
        <route edges="0:1 1:2 2:3 3:18"/>
    </vehicle>
    <vehicle id="57" depart="5.70">
        <route edges="3:2 2:1 1:12 12:13"/>
    </vehicle>
    <vehicle id="58" depart="5.80">
        <route edges="9:8 8:0 0:1 1:2"/>
    </vehicle>
    <vehicle id="59" depart="5.90">
        <route edges="11:10 10:0 0:1 1:12 12:13"/>
    </vehicle>
    <vehicle id="60" depart="6.00">
        <route edges="19:18 18:3 3:2"/>
    </vehicle>
    <vehicle id="61" depart="6.10">
        <route edges="7:5 5:3 3:16 16:17"/>
    </vehicle>
    <vehicle id="63" depart="6.30">
        <route edges="0:4 4:6"/>
    </vehicle>
    <vehicle id="65" depart="6.50">
        <route edges="6:4 4:0 0:8 8:9"/>
    </vehicle>
    <vehicle id="66" depart="6.60">
        <route edges="5:3 3:2 2:1 1:0 0:8"/>
    </vehicle>
    <vehicle id="67" depart="6.70">
        <route edges="17:16 16:3 3:2 2:1 1:0 0:8"/>
    </vehicle>
    <vehicle id="69" depart="6.90">
        <route edges="7:5 5:3 3:18 18:19"/>
    </vehicle>
    <vehicle id="70" depart="7.00">
        <route edges="17:16 16:3 3:5 5:7"/>
    </vehicle>
    <vehicle id="71" depart="7.10">
        <route edges="19:18 18:3 3:2 2:14 14:15"/>
    </vehicle>
    <vehicle id="72" depart="7.20">
        <route edges="6:4 4:0 0:8 8:9"/>
    </vehicle>
    <vehicle id="76" depart="7.60">
        <route edges="18:3 3:2 2:1 1:0 0:10 10:11"/>
    </vehicle>
    <vehicle id="77" depart="7.70">
        <route edges="11:10 10:0 0:1 1:2 2:3"/>
    </vehicle>
    <vehicle id="78" depart="7.80">
        <route edges="7:5 5:3 3:2 2:1 1:0 0:4 4:6"/>
    </vehicle>
    <vehicle id="79" depart="7.90">
        <route edges="6:4 4:0 0:10 10:11"/>
    </vehicle>
    <vehicle id="80" depart="8.00">
        <route edges="18:3 3:16 16:17"/>
    </vehicle>
    <vehicle id="81" depart="8.10">
        <route edges="1:2 2:3 3:18 18:19"/>
    </vehicle>
    <vehicle id="84" depart="8.40">
        <route edges="8:0 0:10 10:11"/>
    </vehicle>
    <vehicle id="86" depart="8.60">
        <route edges="3:2 2:1 1:0 0:10 10:11"/>
    </vehicle>
    <vehicle id="87" depart="8.70">
        <route edges="11:10 10:0 0:4 4:6"/>
    </vehicle>
    <vehicle id="89" depart="8.90">
        <route edges="4:0 0:1 1:2 2:3 3:16 16:17"/>
    </vehicle>
    <vehicle id="90" depart="9.00">
        <route edges="9:8 8:0 0:1 1:2 2:3"/>
    </vehicle>
    <vehicle id="92" depart="9.20">
        <route edges="15:14 14:2 2:1 1:0 0:8 8:9"/>
    </vehicle>
    <vehicle id="94" depart="9.40">
        <route edges="6:4 4:0 0:8 8:9"/>
    </vehicle>
    <vehicle id="96" depart="9.60">
        <route edges="18:3 3:2 2:1 1:0 0:10 10:11"/>
    </vehicle>
    <vehicle id="98" depart="9.80">
        <route edges="9:8 8:0 0:4 4:6"/>
    </vehicle>
    <vehicle id="100" depart="10.00">
        <route edges="9:8 8:0 0:4 4:6"/>
    </vehicle>
    <vehicle id="101" depart="10.10">
        <route edges="15:14 14:2 2:3 3:5 5:7"/>
    </vehicle>
    <vehicle id="102" depart="10.20">
        <route edges="7:5 5:3 3:2 2:1 1:0"/>
    </vehicle>
    <vehicle id="104" depart="10.40">
        <route edges="11:10 10:0 0:1 1:12 12:13"/>
    </vehicle>
    <vehicle id="106" depart="10.60">
        <route edges="2:3 3:5 5:7"/>
    </vehicle>
    <vehicle id="108" depart="10.80">
        <route edges="16:3 3:2 2:1 1:12"/>
    </vehicle>
    <vehicle id="112" depart="11.20">
        <route edges="13:12 12:1 1:2 2:3 3:5 5:7"/>
    </vehicle>
    <vehicle id="113" depart="11.30">
        <route edges="7:5 5:3 3:18"/>
    </vehicle>
    <vehicle id="116" depart="11.60">
        <route edges="8:0"/>
    </vehicle>
    <vehicle id="117" depart="11.70">
        <route edges="7:5 5:3 3:2 2:1"/>
    </vehicle>
    <vehicle id="118" depart="11.80">
        <route edges="3:2 2:1 1:0 0:8"/>
    </vehicle>
    <vehicle id="120" depart="12.00">
        <route edges="17:16 16:3 3:18"/>
    </vehicle>
    <vehicle id="121" depart="12.10">
        <route edges="13:12 12:1 1:0 0:4 4:6"/>
    </vehicle>
    <vehicle id="122" depart="12.20">
        <route edges="17:16 16:3 3:2 2:1 1:0 0:4"/>
    </vehicle>
    <vehicle id="123" depart="12.30">
        <route edges="2:3 3:18 18:19"/>
    </vehicle>
    <vehicle id="124" depart="12.40">
        <route edges="1:2 2:3 3:18"/>
    </vehicle>
    <vehicle id="125" depart="12.50">
        <route edges="19:18 18:3 3:2 2:1 1:0 0:4"/>
    </vehicle>
    <vehicle id="126" depart="12.60">
        <route edges="13:12 12:1 1:0 0:10 10:11"/>
    </vehicle>
    <vehicle id="127" depart="12.70">
        <route edges="7:5 5:3 3:16"/>
    </vehicle>
    <vehicle id="131" depart="13.10">
        <route edges="19:18 18:3 3:2 2:1 1:0 0:4 4:6"/>
    </vehicle>
    <vehicle id="132" depart="13.20">
        <route edges="6:4 4:0 0:10 10:11"/>
    </vehicle>
    <vehicle id="133" depart="13.30">
        <route edges="1:2 2:14 14:15"/>
    </vehicle>
    <vehicle id="134" depart="13.40">
        <route edges="6:4 4:0 0:1 1:2 2:3 3:18 18:19"/>
    </vehicle>
    <vehicle id="135" depart="13.50">
        <route edges="19:18 18:3 3:2 2:14 14:15"/>
    </vehicle>
    <vehicle id="138" depart="13.80">
        <route edges="14:2 2:3 3:16 16:17"/>
    </vehicle>
    <vehicle id="139" depart="13.90">
        <route edges="6:4 4:0 0:1 1:2 2:3 3:5 5:7"/>
    </vehicle>
    <vehicle id="140" depart="14.00">
        <route edges="1:0"/>
    </vehicle>
    <vehicle id="141" depart="14.10">
        <route edges="1:0 0:4 4:6"/>
    </vehicle>
    <vehicle id="144" depart="14.40">
        <route edges="7:5 5:3 3:2 2:1 1:0 0:8 8:9"/>
    </vehicle>
    <vehicle id="147" depart="14.70">
        <route edges="12:1 1:2 2:3 3:18 18:19"/>
    </vehicle>
    <vehicle id="148" depart="14.80">
        <route edges="15:14 14:2 2:1 1:12 12:13"/>
    </vehicle>
    <vehicle id="149" depart="14.90">
        <route edges="6:4 4:0 0:1 1:2 2:3 3:5 5:7"/>
    </vehicle>
    <vehicle id="151" depart="15.10">
        <route edges="6:4 4:0 0:1 1:2 2:14 14:15"/>
    </vehicle>
    <vehicle id="152" depart="15.20">
        <route edges="6:4 4:0 0:1 1:2 2:3"/>
    </vehicle>
    <vehicle id="153" depart="15.30">
        <route edges="13:12 12:1 1:2 2:3 3:5 5:7"/>
    </vehicle>
    <vehicle id="154" depart="15.40">
        <route edges="19:18 18:3 3:2 2:1 1:0 0:4 4:6"/>
    </vehicle>
    <vehicle id="159" depart="15.90">
        <route edges="2:3 3:5 5:7"/>
    </vehicle>
    <vehicle id="160" depart="16.00">
        <route edges="15:14 14:2 2:1 1:0"/>
    </vehicle>
    <vehicle id="162" depart="16.20">
        <route edges="15:14 14:2 2:1 1:0 0:4 4:6"/>
    </vehicle>
    <vehicle id="163" depart="16.30">
        <route edges="17:16 16:3 3:18"/>
    </vehicle>
    <vehicle id="164" depart="16.40">
        <route edges="13:12 12:1 1:2 2:14 14:15"/>
    </vehicle>
    <vehicle id="165" depart="16.50">
        <route edges="6:4 4:0 0:1 1:2 2:3 3:5 5:7"/>
    </vehicle>
    <vehicle id="166" depart="16.60">
        <route edges="13:12 12:1 1:0"/>
    </vehicle>
    <vehicle id="169" depart="16.90">
        <route edges="10:0 0:8 8:9"/>
    </vehicle>
    <vehicle id="173" depart="17.30">
        <route edges="13:12 12:1 1:2 2:14 14:15"/>
    </vehicle>
    <vehicle id="174" depart="17.40">
        <route edges="13:12 12:1 1:0 0:4"/>
    </vehicle>
    <vehicle id="177" depart="17.70">
        <route edges="17:16 16:3 3:2 2:1 1:12"/>
    </vehicle>
    <vehicle id="178" depart="17.80">
        <route edges="15:14 14:2 2:3 3:16"/>
    </vehicle>
    <vehicle id="180" depart="18.00">
        <route edges="4:0 0:1 1:2 2:3 3:5 5:7"/>
    </vehicle>
    <vehicle id="181" depart="18.10">
        <route edges="9:8 8:0 0:1 1:2 2:3 3:5 5:7"/>
    </vehicle>
    <vehicle id="182" depart="18.20">
        <route edges="13:12 12:1 1:2 2:3 3:18 18:19"/>
    </vehicle>
    <vehicle id="185" depart="18.50">
        <route edges="4:0 0:10 10:11"/>
    </vehicle>
    <vehicle id="186" depart="18.60">
        <route edges="4:0 0:1 1:12"/>
    </vehicle>
    <vehicle id="187" depart="18.70">
        <route edges="6:4 4:0 0:1 1:2 2:3 3:5 5:7"/>
    </vehicle>
    <vehicle id="190" depart="19.00">
        <route edges="13:12 12:1 1:2 2:3 3:18 18:19"/>
    </vehicle>
    <vehicle id="192" depart="19.20">
        <route edges="6:4 4:0 0:1 1:2 2:3 3:16 16:17"/>
    </vehicle>
    <vehicle id="194" depart="19.40">
        <route edges="15:14 14:2 2:1 1:0 0:4 4:6"/>
    </vehicle>
    <vehicle id="195" depart="19.50">
        <route edges="8:0 0:1 1:2 2:14 14:15"/>
    </vehicle>
    <vehicle id="197" depart="19.70">
        <route edges="6:4 4:0 0:8 8:9"/>
    </vehicle>
    <vehicle id="198" depart="19.80">
        <route edges="19:18 18:3 3:2 2:1 1:0 0:4"/>
    </vehicle>
    <vehicle id="200" depart="20.00">
        <route edges="3:2 2:14 14:15"/>
    </vehicle>
    <vehicle id="203" depart="20.30">
        <route edges="15:14 14:2 2:1 1:0"/>
    </vehicle>
    <vehicle id="204" depart="20.40">
        <route edges="2:3 3:5 5:7"/>
    </vehicle>
    <vehicle id="206" depart="20.60">
        <route edges="2:3"/>
    </vehicle>
    <vehicle id="214" depart="21.40">
        <route edges="17:16 16:3 3:18 18:19"/>
    </vehicle>
    <vehicle id="215" depart="21.50">
        <route edges="7:5 5:3 3:2 2:1 1:0 0:4 4:6"/>
    </vehicle>
    <vehicle id="216" depart="21.60">
        <route edges="13:12 12:1 1:2 2:3 3:5 5:7"/>
    </vehicle>
    <vehicle id="217" depart="21.70">
        <route edges="4:0 0:1 1:2"/>
    </vehicle>
    <vehicle id="218" depart="21.80">
        <route edges="11:10 10:0 0:1 1:2 2:3 3:5 5:7"/>
    </vehicle>
    <vehicle id="219" depart="21.90">
        <route edges="17:16 16:3 3:2 2:1 1:0 0:4"/>
    </vehicle>
    <vehicle id="220" depart="22.00">
        <route edges="6:4 4:0"/>
    </vehicle>
    <vehicle id="221" depart="22.10">
        <route edges="10:0 0:1 1:2 2:3 3:5"/>
    </vehicle>
    <vehicle id="223" depart="22.30">
        <route edges="5:3 3:2 2:1 1:0 0:4"/>
    </vehicle>
    <vehicle id="224" depart="22.40">
        <route edges="16:3 3:2 2:1 1:12"/>
    </vehicle>
    <vehicle id="225" depart="22.50">
        <route edges="16:3 3:2 2:1 1:0 0:4 4:6"/>
    </vehicle>
    <vehicle id="226" depart="22.60">
        <route edges="11:10 10:0 0:1 1:2 2:14 14:15"/>
    </vehicle>
    <vehicle id="227" depart="22.70">
        <route edges="6:4 4:0 0:1 1:2 2:3 3:16 16:17"/>
    </vehicle>
    <vehicle id="228" depart="22.80">
        <route edges="17:16 16:3 3:5 5:7"/>
    </vehicle>
    <vehicle id="229" depart="22.90">
        <route edges="8:0 0:1 1:2 2:3 3:5 5:7"/>
    </vehicle>
    <vehicle id="230" depart="23.00">
        <route edges="7:5 5:3 3:2 2:1 1:0 0:4 4:6"/>
    </vehicle>
    <vehicle id="232" depart="23.20">
        <route edges="3:2 2:1 1:0 0:4 4:6"/>
    </vehicle>
    <vehicle id="234" depart="23.40">
        <route edges="7:5 5:3 3:2 2:1 1:0"/>
    </vehicle>
    <vehicle id="235" depart="23.50">
        <route edges="6:4 4:0 0:1 1:2 2:3 3:5 5:7"/>
    </vehicle>
    <vehicle id="239" depart="23.90">
        <route edges="9:8 8:0 0:1 1:2 2:3 3:18 18:19"/>
    </vehicle>
    <vehicle id="241" depart="24.10">
        <route edges="6:4 4:0 0:1 1:2 2:3 3:16 16:17"/>
    </vehicle>
    <vehicle id="242" depart="24.20">
        <route edges="7:5 5:3 3:16 16:17"/>
    </vehicle>
    <vehicle id="243" depart="24.30">
        <route edges="3:2"/>
    </vehicle>
    <vehicle id="245" depart="24.50">
        <route edges="3:2 2:1 1:12 12:13"/>
    </vehicle>
    <vehicle id="246" depart="24.60">
        <route edges="5:3 3:2 2:1 1:12 12:13"/>
    </vehicle>
    <vehicle id="247" depart="24.70">
        <route edges="7:5 5:3 3:16 16:17"/>
    </vehicle>
    <vehicle id="248" depart="24.80">
        <route edges="18:3 3:2 2:1 1:0 0:8 8:9"/>
    </vehicle>
    <vehicle id="250" depart="25.00">
        <route edges="17:16 16:3 3:2 2:14 14:15"/>
    </vehicle>
    <vehicle id="251" depart="25.10">
        <route edges="6:4 4:0 0:1 1:12"/>
    </vehicle>
    <vehicle id="253" depart="25.30">
        <route edges="8:0 0:1 1:2 2:3 3:5"/>
    </vehicle>
    <vehicle id="255" depart="25.50">
        <route edges="8:0 0:1 1:2"/>
    </vehicle>
    <vehicle id="257" depart="25.70">
        <route edges="6:4 4:0 0:8 8:9"/>
    </vehicle>
    <vehicle id="260" depart="26.00">
        <route edges="19:18 18:3 3:2 2:1 1:0"/>
    </vehicle>
    <vehicle id="261" depart="26.10">
        <route edges="9:8 8:0 0:4 4:6"/>
    </vehicle>
    <vehicle id="262" depart="26.20">
        <route edges="7:5 5:3 3:2 2:1 1:0"/>
    </vehicle>
    <vehicle id="267" depart="26.70">
        <route edges="7:5 5:3 3:2"/>
    </vehicle>
    <vehicle id="269" depart="26.90">
        <route edges="4:0 0:1 1:2 2:14 14:15"/>
    </vehicle>
    <vehicle id="271" depart="27.10">
        <route edges="2:3 3:16 16:17"/>
    </vehicle>
    <vehicle id="272" depart="27.20">
        <route edges="1:2 2:3 3:5 5:7"/>
    </vehicle>
    <vehicle id="274" depart="27.40">
        <route edges="8:0 0:1 1:12 12:13"/>
    </vehicle>
    <vehicle id="275" depart="27.50">
        <route edges="17:16 16:3 3:2 2:1 1:0"/>
    </vehicle>
    <vehicle id="278" depart="27.80">
        <route edges="11:10 10:0 0:1 1:2 2:3"/>
    </vehicle>
    <vehicle id="281" depart="28.10">
        <route edges="11:10 10:0 0:8 8:9"/>
    </vehicle>
    <vehicle id="282" depart="28.20">
        <route edges="3:5 5:7"/>
    </vehicle>
    <vehicle id="283" depart="28.30">
        <route edges="12:1 1:0"/>
    </vehicle>
    <vehicle id="284" depart="28.40">
        <route edges="15:14 14:2 2:1 1:0 0:4 4:6"/>
    </vehicle>
    <vehicle id="286" depart="28.60">
        <route edges="19:18 18:3 3:5 5:7"/>
    </vehicle>
    <vehicle id="288" depart="28.80">
        <route edges="19:18 18:3 3:2 2:1 1:0 0:4 4:6"/>
    </vehicle>
    <vehicle id="291" depart="29.10">
        <route edges="5:3 3:2 2:14"/>
    </vehicle>
    <vehicle id="292" depart="29.20">
        <route edges="1:0 0:10 10:11"/>
    </vehicle>
    <vehicle id="294" depart="29.40">
        <route edges="8:0 0:1 1:12 12:13"/>
    </vehicle>
    <vehicle id="295" depart="29.50">
        <route edges="17:16 16:3 3:2 2:1 1:0"/>
    </vehicle>
    <vehicle id="296" depart="29.60">
        <route edges="8:0 0:10 10:11"/>
    </vehicle>
    <vehicle id="297" depart="29.70">
        <route edges="15:14 14:2 2:3 3:5 5:7"/>
    </vehicle>
    <vehicle id="300" depart="30.00">
        <route edges="2:3 3:18 18:19"/>
    </vehicle>
    <vehicle id="304" depart="30.40">
        <route edges="10:0 0:1 1:2 2:3 3:16 16:17"/>
    </vehicle>
    <vehicle id="309" depart="30.90">
        <route edges="19:18 18:3"/>
    </vehicle>
    <vehicle id="310" depart="31.00">
        <route edges="17:16 16:3 3:2 2:1 1:12 12:13"/>
    </vehicle>
    <vehicle id="311" depart="31.10">
        <route edges="6:4 4:0 0:1 1:12 12:13"/>
    </vehicle>
    <vehicle id="313" depart="31.30">
        <route edges="6:4 4:0 0:10 10:11"/>
    </vehicle>
    <vehicle id="314" depart="31.40">
        <route edges="13:12 12:1 1:0 0:4"/>
    </vehicle>
    <vehicle id="315" depart="31.50">
        <route edges="2:1 1:0 0:4 4:6"/>
    </vehicle>
    <vehicle id="317" depart="31.70">
        <route edges="7:5 5:3"/>
    </vehicle>
    <vehicle id="318" depart="31.80">
        <route edges="13:12 12:1 1:0 0:8 8:9"/>
    </vehicle>
    <vehicle id="319" depart="31.90">
        <route edges="15:14 14:2 2:1 1:0 0:8 8:9"/>
    </vehicle>
    <vehicle id="321" depart="32.10">
        <route edges="3:2 2:1 1:0"/>
    </vehicle>
    <vehicle id="325" depart="32.50">
        <route edges="12:1 1:0 0:10 10:11"/>
    </vehicle>
    <vehicle id="326" depart="32.60">
        <route edges="4:0"/>
    </vehicle>
    <vehicle id="327" depart="32.70">
        <route edges="0:8 8:9"/>
    </vehicle>
    <vehicle id="328" depart="32.80">
        <route edges="7:5 5:3 3:18 18:19"/>
    </vehicle>
    <vehicle id="330" depart="33.00">
        <route edges="3:2"/>
    </vehicle>
    <vehicle id="331" depart="33.10">
        <route edges="15:14 14:2 2:1"/>
    </vehicle>
    <vehicle id="332" depart="33.20">
        <route edges="9:8 8:0 0:1 1:12 12:13"/>
    </vehicle>
    <vehicle id="334" depart="33.40">
        <route edges="11:10 10:0 0:1 1:2 2:3 3:16 16:17"/>
    </vehicle>
    <vehicle id="335" depart="33.50">
        <route edges="10:0 0:1 1:2 2:3 3:5"/>
    </vehicle>
    <vehicle id="336" depart="33.60">
        <route edges="13:12 12:1 1:0 0:8 8:9"/>
    </vehicle>
    <vehicle id="337" depart="33.70">
        <route edges="9:8 8:0"/>
    </vehicle>
    <vehicle id="339" depart="33.90">
        <route edges="9:8 8:0 0:1 1:2 2:14 14:15"/>
    </vehicle>
    <vehicle id="340" depart="34.00">
        <route edges="17:16 16:3 3:5 5:7"/>
    </vehicle>
    <vehicle id="342" depart="34.20">
        <route edges="7:5 5:3 3:2 2:1 1:0 0:10 10:11"/>
    </vehicle>
    <vehicle id="344" depart="34.40">
        <route edges="19:18 18:3 3:2"/>
    </vehicle>
    <vehicle id="345" depart="34.50">
        <route edges="18:3 3:2 2:1 1:12"/>
    </vehicle>
    <vehicle id="350" depart="35.00">
        <route edges="1:2 2:3"/>
    </vehicle>
    <vehicle id="357" depart="35.70">
        <route edges="9:8 8:0 0:1 1:2 2:14 14:15"/>
    </vehicle>
    <vehicle id="359" depart="35.90">
        <route edges="5:3 3:16"/>
    </vehicle>
    <vehicle id="361" depart="36.10">
        <route edges="7:5 5:3 3:2 2:14"/>
    </vehicle>
    <vehicle id="364" depart="36.40">
        <route edges="0:1 1:2 2:3 3:5 5:7"/>
    </vehicle>
    <vehicle id="365" depart="36.50">
        <route edges="7:5 5:3 3:18"/>
    </vehicle>
    <vehicle id="366" depart="36.60">
        <route edges="11:10 10:0 0:4"/>
    </vehicle>
    <vehicle id="368" depart="36.80">
        <route edges="3:2"/>
    </vehicle>
    <vehicle id="369" depart="36.90">
        <route edges="6:4 4:0 0:1 1:2 2:14 14:15"/>
    </vehicle>
    <vehicle id="370" depart="37.00">
        <route edges="9:8 8:0 0:10 10:11"/>
    </vehicle>
    <vehicle id="377" depart="37.70">
        <route edges="6:4 4:0 0:1 1:2 2:3 3:16 16:17"/>
    </vehicle>
    <vehicle id="378" depart="37.80">
        <route edges="6:4 4:0 0:1 1:2 2:3 3:16 16:17"/>
    </vehicle>
    <vehicle id="382" depart="38.20">
        <route edges="15:14 14:2 2:3 3:18 18:19"/>
    </vehicle>
    <vehicle id="383" depart="38.30">
        <route edges="7:5 5:3"/>
    </vehicle>
    <vehicle id="384" depart="38.40">
        <route edges="9:8 8:0 0:1"/>
    </vehicle>
    <vehicle id="386" depart="38.60">
        <route edges="17:16 16:3 3:2 2:1 1:0 0:4"/>
    </vehicle>
    <vehicle id="387" depart="38.70">
        <route edges="4:0 0:1 1:2 2:3 3:5 5:7"/>
    </vehicle>
    <vehicle id="388" depart="38.80">
        <route edges="9:8 8:0 0:1 1:2 2:3 3:18 18:19"/>
    </vehicle>
    <vehicle id="389" depart="38.90">
        <route edges="7:5 5:3 3:2"/>
    </vehicle>
    <vehicle id="390" depart="39.00">
        <route edges="4:0 0:10 10:11"/>
    </vehicle>
    <vehicle id="391" depart="39.10">
        <route edges="10:0 0:4 4:6"/>
    </vehicle>
    <vehicle id="393" depart="39.30">
        <route edges="8:0 0:1 1:2"/>
    </vehicle>
    <vehicle id="394" depart="39.40">
        <route edges="11:10 10:0"/>
    </vehicle>
    <vehicle id="395" depart="39.50">
        <route edges="13:12 12:1 1:0 0:4 4:6"/>
    </vehicle>
    <vehicle id="397" depart="39.70">
        <route edges="5:3 3:2 2:1 1:12 12:13"/>
    </vehicle>
    <vehicle id="398" depart="39.80">
        <route edges="6:4 4:0 0:1 1:2 2:3 3:16 16:17"/>
    </vehicle>
    <vehicle id="399" depart="39.90">
        <route edges="9:8 8:0 0:10"/>
    </vehicle>
    <vehicle id="400" depart="40.00">
        <route edges="19:18 18:3 3:2 2:1 1:0 0:4 4:6"/>
    </vehicle>
    <vehicle id="405" depart="40.50">
        <route edges="13:12 12:1 1:2 2:3 3:16"/>
    </vehicle>
    <vehicle id="406" depart="40.60">
        <route edges="15:14 14:2 2:3"/>
    </vehicle>
    <vehicle id="408" depart="40.80">
        <route edges="6:4 4:0 0:1 1:2 2:3"/>
    </vehicle>
    <vehicle id="410" depart="41.00">
        <route edges="0:10 10:11"/>
    </vehicle>
    <vehicle id="411" depart="41.10">
        <route edges="6:4 4:0 0:1 1:2 2:14 14:15"/>
    </vehicle>
    <vehicle id="412" depart="41.20">
        <route edges="6:4 4:0 0:1 1:2 2:3 3:16 16:17"/>
    </vehicle>
    <vehicle id="413" depart="41.30">
        <route edges="17:16 16:3 3:2 2:14 14:15"/>
    </vehicle>
    <vehicle id="415" depart="41.50">
        <route edges="6:4 4:0 0:1 1:12"/>
    </vehicle>
    <vehicle id="416" depart="41.60">
        <route edges="17:16 16:3 3:5 5:7"/>
    </vehicle>
    <vehicle id="418" depart="41.80">
        <route edges="17:16 16:3 3:2 2:1 1:0 0:8 8:9"/>
    </vehicle>
    <vehicle id="419" depart="41.90">
        <route edges="9:8 8:0 0:1 1:2 2:3 3:5"/>
    </vehicle>
    <vehicle id="420" depart="42.00">
        <route edges="9:8 8:0 0:4"/>
    </vehicle>
    <vehicle id="423" depart="42.30">
        <route edges="11:10 10:0 0:4 4:6"/>
    </vehicle>
    <vehicle id="424" depart="42.40">
        <route edges="8:0 0:4 4:6"/>
    </vehicle>
    <vehicle id="426" depart="42.60">
        <route edges="14:2"/>
    </vehicle>
    <vehicle id="427" depart="42.70">
        <route edges="0:1 1:2 2:3 3:5"/>
    </vehicle>
    <vehicle id="429" depart="42.90">
        <route edges="11:10 10:0 0:4 4:6"/>
    </vehicle>
    <vehicle id="430" depart="43.00">
        <route edges="12:1 1:2 2:14 14:15"/>
    </vehicle>
    <vehicle id="431" depart="43.10">
        <route edges="0:4 4:6"/>
    </vehicle>
    <vehicle id="432" depart="43.20">
        <route edges="3:2 2:1 1:0 0:4 4:6"/>
    </vehicle>
    <vehicle id="437" depart="43.70">
        <route edges="17:16 16:3 3:2 2:1 1:0 0:4 4:6"/>
    </vehicle>
    <vehicle id="439" depart="43.90">
        <route edges="4:0 0:1 1:2 2:14"/>
    </vehicle>
    <vehicle id="446" depart="44.60">
        <route edges="6:4 4:0 0:1 1:12 12:13"/>
    </vehicle>
    <vehicle id="447" depart="44.70">
        <route edges="9:8 8:0 0:1 1:12 12:13"/>
    </vehicle>
    <vehicle id="448" depart="44.80">
        <route edges="1:2 2:3"/>
    </vehicle>
    <vehicle id="449" depart="44.90">
        <route edges="7:5 5:3 3:2"/>
    </vehicle>
    <vehicle id="450" depart="45.00">
        <route edges="6:4 4:0 0:1 1:2 2:3 3:5 5:7"/>
    </vehicle>
    <vehicle id="451" depart="45.10">
        <route edges="11:10 10:0 0:1 1:12 12:13"/>
    </vehicle>
    <vehicle id="455" depart="45.50">
        <route edges="14:2 2:1 1:0 0:10"/>
    </vehicle>
    <vehicle id="463" depart="46.30">
        <route edges="15:14 14:2 2:3 3:16 16:17"/>
    </vehicle>
    <vehicle id="464" depart="46.40">
        <route edges="14:2 2:3 3:18 18:19"/>
    </vehicle>
    <vehicle id="466" depart="46.60">
        <route edges="7:5 5:3 3:2"/>
    </vehicle>
    <vehicle id="467" depart="46.70">
        <route edges="3:2 2:1 1:0 0:8 8:9"/>
    </vehicle>
    <vehicle id="469" depart="46.90">
        <route edges="6:4 4:0 0:1 1:2 2:3 3:5 5:7"/>
    </vehicle>
    <vehicle id="473" depart="47.30">
        <route edges="0:1 1:2 2:3 3:5 5:7"/>
    </vehicle>
    <vehicle id="476" depart="47.60">
        <route edges="3:2 2:1 1:0 0:8 8:9"/>
    </vehicle>
    <vehicle id="479" depart="47.90">
        <route edges="2:3 3:16 16:17"/>
    </vehicle>
    <vehicle id="480" depart="48.00">
        <route edges="4:0 0:1 1:2 2:3"/>
    </vehicle>
    <vehicle id="481" depart="48.10">
        <route edges="1:0 0:4 4:6"/>
    </vehicle>
    <vehicle id="482" depart="48.20">
        <route edges="18:3 3:2 2:1"/>
    </vehicle>
    <vehicle id="483" depart="48.30">
        <route edges="7:5 5:3 3:2"/>
    </vehicle>
    <vehicle id="485" depart="48.50">
        <route edges="11:10 10:0 0:4 4:6"/>
    </vehicle>
    <vehicle id="486" depart="48.60">
        <route edges="15:14 14:2 2:1 1:0 0:10 10:11"/>
    </vehicle>
    <vehicle id="487" depart="48.70">
        <route edges="6:4 4:0 0:1 1:12 12:13"/>
    </vehicle>
    <vehicle id="491" depart="49.10">
        <route edges="8:0 0:10 10:11"/>
    </vehicle>
    <vehicle id="494" depart="49.40">
        <route edges="13:12 12:1"/>
    </vehicle>
    <vehicle id="497" depart="49.70">
        <route edges="5:3 3:16 16:17"/>
    </vehicle>
    <vehicle id="499" depart="49.90">
        <route edges="11:10 10:0 0:1 1:12 12:13"/>
    </vehicle>
    <vehicle id="502" depart="50.20">
        <route edges="5:3 3:2 2:14 14:15"/>
    </vehicle>
    <vehicle id="503" depart="50.30">
        <route edges="17:16 16:3 3:2"/>
    </vehicle>
    <vehicle id="506" depart="50.60">
        <route edges="13:12 12:1 1:2 2:14 14:15"/>
    </vehicle>
    <vehicle id="508" depart="50.80">
        <route edges="19:18 18:3 3:2 2:1 1:0 0:8"/>
    </vehicle>
    <vehicle id="509" depart="50.90">
        <route edges="5:3 3:18 18:19"/>
    </vehicle>
    <vehicle id="511" depart="51.10">
        <route edges="4:0 0:1 1:2 2:3 3:18 18:19"/>
    </vehicle>
    <vehicle id="513" depart="51.30">
        <route edges="11:10 10:0 0:4"/>
    </vehicle>
    <vehicle id="517" depart="51.70">
        <route edges="6:4 4:0 0:1 1:2 2:14 14:15"/>
    </vehicle>
    <vehicle id="524" depart="52.40">
        <route edges="7:5 5:3 3:2 2:1 1:0 0:8 8:9"/>
    </vehicle>
    <vehicle id="525" depart="52.50">
        <route edges="17:16 16:3 3:18 18:19"/>
    </vehicle>
    <vehicle id="528" depart="52.80">
        <route edges="9:8 8:0 0:1 1:2 2:3 3:18 18:19"/>
    </vehicle>
    <vehicle id="531" depart="53.10">
        <route edges="2:3 3:18 18:19"/>
    </vehicle>
    <vehicle id="534" depart="53.40">
        <route edges="4:0 0:1 1:2 2:14 14:15"/>
    </vehicle>
    <vehicle id="536" depart="53.60">
        <route edges="3:2 2:1 1:12"/>
    </vehicle>
    <vehicle id="540" depart="54.00">
        <route edges="7:5 5:3 3:2 2:14"/>
    </vehicle>
    <vehicle id="542" depart="54.20">
        <route edges="4:0 0:1 1:2 2:14 14:15"/>
    </vehicle>
    <vehicle id="543" depart="54.30">
        <route edges="5:3 3:2 2:1 1:0 0:8"/>
    </vehicle>
    <vehicle id="548" depart="54.80">
        <route edges="2:1 1:0 0:10"/>
    </vehicle>
    <vehicle id="551" depart="55.10">
        <route edges="5:3 3:2 2:1 1:0 0:4"/>
    </vehicle>