<?xml version="1.0" encoding="UTF-8"?>

<!-- generated on Thu Oct 23 22:33:09 2014 by SUMO duarouter Version 0.18.0
<?xml version="1.0" encoding="UTF-8"?>

<configuration xmlns:xsi="http://www.w3.org/2001/XMLSchema-instance" xsi:noNamespaceSchemaLocation="http://sumo.sf.net/xsd/duarouterConfiguration.xsd">

    <input>
        <net-file value="corridor.net.xml"/>
        <trip-files value="experimentos/corridor.p0.1.2.trips.xml"/>
    </input>

    <output>
        <output-file value="experimentos/corridor.p0.1.2.rou.xml"/>
    </output>

    <processing>
        <ignore-errors value="true"/>
    </processing>

    <random_number>
        <random value="true"/>
    </random_number>

</configuration>
-->

<routes xmlns:xsi="http://www.w3.org/2001/XMLSchema-instance" xsi:noNamespaceSchemaLocation="http://sumo.sf.net/xsd/routes_file.xsd">
    <vehicle id="0" depart="0.00">
        <route edges="19:18 18:3 3:5 5:7"/>
    </vehicle>
    <vehicle id="3" depart="0.30">
        <route edges="4:0 0:1 1:2 2:3 3:16"/>
    </vehicle>
    <vehicle id="4" depart="0.40">
        <route edges="7:5 5:3 3:2 2:1 1:0 0:4 4:6"/>
    </vehicle>
    <vehicle id="7" depart="0.70">
        <route edges="15:14 14:2 2:1 1:0 0:8 8:9"/>
    </vehicle>
    <vehicle id="8" depart="0.80">
        <route edges="9:8 8:0 0:4 4:6"/>
    </vehicle>
    <vehicle id="10" depart="1.00">
        <route edges="19:18 18:3 3:5"/>
    </vehicle>
    <vehicle id="11" depart="1.10">
        <route edges="15:14 14:2 2:1 1:0"/>
    </vehicle>
    <vehicle id="12" depart="1.20">
        <route edges="13:12 12:1 1:0 0:8 8:9"/>
    </vehicle>
    <vehicle id="14" depart="1.40">
        <route edges="4:0 0:1 1:2 2:3"/>
    </vehicle>
    <vehicle id="15" depart="1.50">
        <route edges="7:5 5:3 3:18 18:19"/>
    </vehicle>
    <vehicle id="16" depart="1.60">
        <route edges="6:4 4:0 0:1 1:2 2:3 3:16 16:17"/>
    </vehicle>
    <vehicle id="20" depart="2.00">
        <route edges="7:5 5:3 3:2 2:14 14:15"/>
    </vehicle>
    <vehicle id="21" depart="2.10">
        <route edges="5:3 3:2 2:1 1:0 0:8 8:9"/>
    </vehicle>
    <vehicle id="24" depart="2.40">
        <route edges="19:18 18:3 3:2 2:1 1:0 0:4"/>
    </vehicle>
    <vehicle id="25" depart="2.50">
        <route edges="9:8 8:0 0:1 1:2 2:14 14:15"/>
    </vehicle>
    <vehicle id="26" depart="2.60">
        <route edges="19:18 18:3 3:2 2:1 1:0 0:4 4:6"/>
    </vehicle>
    <vehicle id="27" depart="2.70">
        <route edges="17:16 16:3 3:2 2:1 1:0"/>
    </vehicle>
    <vehicle id="29" depart="2.90">
        <route edges="18:3 3:16"/>
    </vehicle>
    <vehicle id="30" depart="3.00">
        <route edges="4:0 0:1 1:2 2:14 14:15"/>
    </vehicle>
    <vehicle id="33" depart="3.30">
        <route edges="6:4 4:0 0:10 10:11"/>
    </vehicle>
    <vehicle id="34" depart="3.40">
        <route edges="6:4 4:0 0:1 1:2 2:3"/>
    </vehicle>
    <vehicle id="35" depart="3.50">
        <route edges="6:4 4:0 0:1 1:2 2:14 14:15"/>
    </vehicle>
    <vehicle id="36" depart="3.60">
        <route edges="19:18 18:3 3:2 2:1 1:0 0:4 4:6"/>
    </vehicle>
    <vehicle id="38" depart="3.80">
        <route edges="17:16 16:3 3:5 5:7"/>
    </vehicle>
    <vehicle id="45" depart="4.50">
        <route edges="4:0 0:8 8:9"/>
    </vehicle>
    <vehicle id="50" depart="5.00">
        <route edges="17:16 16:3 3:2 2:1"/>
    </vehicle>
    <vehicle id="58" depart="5.80">
        <route edges="1:2 2:3 3:5 5:7"/>
    </vehicle>
    <vehicle id="59" depart="5.90">
        <route edges="1:0 0:8 8:9"/>
    </vehicle>
    <vehicle id="61" depart="6.10">
        <route edges="14:2 2:3 3:16 16:17"/>
    </vehicle>
    <vehicle id="62" depart="6.20">
        <route edges="15:14 14:2 2:3"/>
    </vehicle>
    <vehicle id="64" depart="6.40">
        <route edges="4:0 0:10 10:11"/>
    </vehicle>
    <vehicle id="65" depart="6.50">
        <route edges="10:0 0:8 8:9"/>
    </vehicle>
    <vehicle id="66" depart="6.60">
        <route edges="4:0 0:1 1:2 2:14 14:15"/>
    </vehicle>
    <vehicle id="67" depart="6.70">
        <route edges="8:0 0:10 10:11"/>
    </vehicle>
    <vehicle id="68" depart="6.80">
        <route edges="0:4 4:6"/>
    </vehicle>
    <vehicle id="69" depart="6.90">
        <route edges="13:12 12:1 1:2"/>
    </vehicle>
    <vehicle id="71" depart="7.10">
        <route edges="15:14 14:2 2:3 3:18 18:19"/>
    </vehicle>
    <vehicle id="74" depart="7.40">
        <route edges="5:3 3:2 2:1 1:0 0:4 4:6"/>
    </vehicle>
    <vehicle id="75" depart="7.50">
        <route edges="0:4 4:6"/>
    </vehicle>
    <vehicle id="79" depart="7.90">
        <route edges="2:3 3:5"/>
    </vehicle>
    <vehicle id="80" depart="8.00">
        <route edges="10:0 0:1 1:2 2:3 3:5 5:7"/>
    </vehicle>
    <vehicle id="82" depart="8.20">
        <route edges="4:0 0:1 1:2 2:3 3:5 5:7"/>
    </vehicle>
    <vehicle id="84" depart="8.40">
        <route edges="19:18 18:3 3:2 2:1 1:0 0:10 10:11"/>
    </vehicle>
    <vehicle id="85" depart="8.50">
        <route edges="15:14 14:2 2:3"/>
    </vehicle>
    <vehicle id="86" depart="8.60">
        <route edges="4:0"/>
    </vehicle>
    <vehicle id="91" depart="9.10">
        <route edges="14:2 2:3 3:5 5:7"/>
    </vehicle>
    <vehicle id="92" depart="9.20">
        <route edges="6:4 4:0 0:1 1:2 2:3 3:5 5:7"/>
    </vehicle>
    <vehicle id="93" depart="9.30">
        <route edges="18:3 3:2 2:1 1:0 0:4"/>
    </vehicle>
    <vehicle id="94" depart="9.40">
        <route edges="1:0 0:10 10:11"/>
    </vehicle>
    <vehicle id="97" depart="9.70">
        <route edges="6:4 4:0 0:1"/>
    </vehicle>
    <vehicle id="101" depart="10.10">
        <route edges="2:3 3:5 5:7"/>
    </vehicle>
    <vehicle id="102" depart="10.20">
        <route edges="9:8 8:0 0:4"/>
    </vehicle>
    <vehicle id="103" depart="10.30">
        <route edges="1:0 0:4 4:6"/>
    </vehicle>
    <vehicle id="106" depart="10.60">
        <route edges="7:5 5:3 3:2 2:1 1:12 12:13"/>
    </vehicle>
    <vehicle id="107" depart="10.70">
        <route edges="17:16 16:3 3:2 2:1 1:12"/>
    </vehicle>
    <vehicle id="108" depart="10.80">
        <route edges="13:12 12:1 1:2 2:3 3:5 5:7"/>
    </vehicle>
    <vehicle id="112" depart="11.20">
        <route edges="9:8 8:0 0:10"/>
    </vehicle>
    <vehicle id="113" depart="11.30">
        <route edges="6:4 4:0 0:1 1:2"/>
    </vehicle>
    <vehicle id="114" depart="11.40">
        <route edges="5:3 3:2 2:1 1:0 0:4 4:6"/>
    </vehicle>
    <vehicle id="115" depart="11.50">
        <route edges="13:12 12:1 1:2 2:14 14:15"/>
    </vehicle>
    <vehicle id="116" depart="11.60">
        <route edges="19:18 18:3"/>
    </vehicle>
    <vehicle id="118" depart="11.80">
        <route edges="6:4 4:0 0:1 1:2 2:14 14:15"/>
    </vehicle>
    <vehicle id="119" depart="11.90">
        <route edges="19:18 18:3 3:2 2:1 1:0 0:10"/>
    </vehicle>
    <vehicle id="120" depart="12.00">
        <route edges="6:4 4:0 0:1 1:2 2:3 3:5 5:7"/>
    </vehicle>
    <vehicle id="121" depart="12.10">
        <route edges="7:5 5:3 3:2 2:1 1:0 0:8 8:9"/>
    </vehicle>
    <vehicle id="123" depart="12.30">
        <route edges="18:3 3:2 2:1 1:12"/>
    </vehicle>
    <vehicle id="124" depart="12.40">
        <route edges="9:8 8:0 0:4 4:6"/>
    </vehicle>
    <vehicle id="128" depart="12.80">
        <route edges="7:5 5:3 3:2 2:1 1:0 0:10 10:11"/>
    </vehicle>
    <vehicle id="129" depart="12.90">
        <route edges="7:5 5:3 3:2 2:1 1:0 0:8 8:9"/>
    </vehicle>
    <vehicle id="132" depart="13.20">
        <route edges="5:3 3:2"/>
    </vehicle>
    <vehicle id="133" depart="13.30">
        <route edges="12:1 1:0 0:8"/>
    </vehicle>
    <vehicle id="134" depart="13.40">
        <route edges="4:0 0:1 1:2 2:3 3:16 16:17"/>
    </vehicle>
    <vehicle id="138" depart="13.80">
        <route edges="3:2 2:1 1:0 0:4 4:6"/>
    </vehicle>
    <vehicle id="139" depart="13.90">
        <route edges="6:4 4:0 0:1 1:2 2:3 3:5"/>
    </vehicle>
    <vehicle id="142" depart="14.20">
        <route edges="3:2 2:14 14:15"/>
    </vehicle>
    <vehicle id="143" depart="14.30">
        <route edges="18:3 3:2 2:1 1:0 0:8 8:9"/>
    </vehicle>
    <vehicle id="144" depart="14.40">
        <route edges="6:4 4:0"/>
    </vehicle>
    <vehicle id="145" depart="14.50">
        <route edges="0:10 10:11"/>
    </vehicle>
    <vehicle id="146" depart="14.60">
        <route edges="2:1 1:12"/>
    </vehicle>
    <vehicle id="147" depart="14.70">
        <route edges="0:4 4:6"/>
    </vehicle>
    <vehicle id="150" depart="15.00">
        <route edges="7:5 5:3 3:18 18:19"/>
    </vehicle>
    <vehicle id="151" depart="15.10">
        <route edges="6:4 4:0 0:1 1:12 12:13"/>
    </vehicle>
    <vehicle id="152" depart="15.20">
        <route edges="7:5 5:3 3:2 2:14 14:15"/>
    </vehicle>
    <vehicle id="157" depart="15.70">
        <route edges="7:5 5:3 3:2 2:1 1:0 0:8"/>
    </vehicle>
    <vehicle id="158" depart="15.80">
        <route edges="0:1 1:2 2:3 3:5 5:7"/>
    </vehicle>
    <vehicle id="160" depart="16.00">
        <route edges="11:10 10:0 0:1 1:2 2:3 3:5 5:7"/>
    </vehicle>
    <vehicle id="161" depart="16.10">
        <route edges="3:5 5:7"/>
    </vehicle>
    <vehicle id="162" depart="16.20">
        <route edges="6:4 4:0 0:8 8:9"/>
    </vehicle>
    <vehicle id="165" depart="16.50">
        <route edges="7:5 5:3 3:2 2:1 1:0 0:8"/>
    </vehicle>
    <vehicle id="166" depart="16.60">
        <route edges="9:8 8:0 0:1 1:2 2:3 3:5"/>
    </vehicle>
    <vehicle id="168" depart="16.80">
        <route edges="4:0 0:8 8:9"/>
    </vehicle>
    <vehicle id="169" depart="16.90">
        <route edges="6:4 4:0 0:1 1:2 2:3 3:5 5:7"/>
    </vehicle>
    <vehicle id="171" depart="17.10">
        <route edges="19:18 18:3 3:2 2:1 1:12 12:13"/>
    </vehicle>
    <vehicle id="172" depart="17.20">
        <route edges="5:3 3:2 2:1 1:0 0:10 10:11"/>
    </vehicle>
    <vehicle id="175" depart="17.50">
        <route edges="11:10 10:0 0:4 4:6"/>
    </vehicle>
    <vehicle id="176" depart="17.60">
        <route edges="6:4 4:0 0:1 1:2 2:3"/>
    </vehicle>
    <vehicle id="178" depart="17.80">
        <route edges="2:1"/>
    </vehicle>
    <vehicle id="179" depart="17.90">
        <route edges="13:12 12:1 1:2 2:3 3:18 18:19"/>
    </vehicle>
    <vehicle id="180" depart="18.00">
        <route edges="0:1 1:2 2:14 14:15"/>
    </vehicle>
    <vehicle id="181" depart="18.10">
        <route edges="19:18 18:3 3:2 2:14 14:15"/>
    </vehicle>
    <vehicle id="182" depart="18.20">
        <route edges="18:3 3:5 5:7"/>
    </vehicle>
    <vehicle id="183" depart="18.30">
        <route edges="3:2 2:1 1:12 12:13"/>
    </vehicle>
    <vehicle id="185" depart="18.50">
        <route edges="5:3 3:2 2:1 1:0 0:4 4:6"/>
    </vehicle>
    <vehicle id="186" depart="18.60">
        <route edges="1:2 2:3"/>
    </vehicle>
    <vehicle id="189" depart="18.90">
        <route edges="9:8 8:0 0:1 1:12 12:13"/>
    </vehicle>
    <vehicle id="190" depart="19.00">
        <route edges="13:12 12:1 1:2 2:3"/>
    </vehicle>
    <vehicle id="192" depart="19.20">
        <route edges="11:10 10:0 0:4 4:6"/>
    </vehicle>
    <vehicle id="195" depart="19.50">
        <route edges="6:4 4:0 0:1 1:2 2:14 14:15"/>
    </vehicle>
    <vehicle id="199" depart="19.90">
        <route edges="13:12 12:1 1:0"/>
    </vehicle>
    <vehicle id="200" depart="20.00">
        <route edges="19:18 18:3 3:2 2:1 1:0 0:10 10:11"/>
    </vehicle>
    <vehicle id="203" depart="20.30">
        <route edges="13:12 12:1 1:2 2:3 3:5 5:7"/>
    </vehicle>
    <vehicle id="205" depart="20.50">
        <route edges="3:2 2:1 1:0 0:10 10:11"/>
    </vehicle>
    <vehicle id="206" depart="20.60">
        <route edges="7:5 5:3 3:2 2:1 1:0 0:4 4:6"/>
    </vehicle>
    <vehicle id="208" depart="20.80">
        <route edges="3:16 16:17"/>
    </vehicle>
    <vehicle id="209" depart="20.90">
        <route edges="7:5 5:3 3:2 2:1 1:12 12:13"/>
    </vehicle>
    <vehicle id="211" depart="21.10">
        <route edges="7:5 5:3 3:2 2:1 1:0 0:10"/>
    </vehicle>
    <vehicle id="213" depart="21.30">
        <route edges="17:16 16:3 3:2 2:14 14:15"/>
    </vehicle>
    <vehicle id="215" depart="21.50">
        <route edges="4:0 0:1 1:2 2:3 3:18"/>
    </vehicle>
    <vehicle id="217" depart="21.70">
        <route edges="17:16 16:3 3:2 2:1 1:0 0:4 4:6"/>
    </vehicle>
    <vehicle id="218" depart="21.80">
        <route edges="15:14 14:2 2:1 1:0 0:8 8:9"/>
    </vehicle>
    <vehicle id="219" depart="21.90">
        <route edges="13:12 12:1 1:2 2:14"/>
    </vehicle>
    <vehicle id="220" depart="22.00">
        <route edges="3:18 18:19"/>
    </vehicle>
    <vehicle id="224" depart="22.40">
        <route edges="5:3 3:2 2:1 1:0 0:8 8:9"/>
    </vehicle>
    <vehicle id="226" depart="22.60">
        <route edges="17:16 16:3 3:2 2:1 1:0 0:8 8:9"/>
    </vehicle>
    <vehicle id="228" depart="22.80">
        <route edges="15:14 14:2 2:3 3:5 5:7"/>
    </vehicle>
    <vehicle id="229" depart="22.90">
        <route edges="11:10 10:0 0:1 1:2 2:3 3:5"/>
    </vehicle>
    <vehicle id="230" depart="23.00">
        <route edges="0:1 1:12 12:13"/>
    </vehicle>
    <vehicle id="234" depart="23.40">
        <route edges="17:16 16:3 3:2 2:1 1:0 0:4"/>
    </vehicle>
    <vehicle id="235" depart="23.50">
        <route edges="9:8 8:0 0:1 1:2 2:3 3:5"/>
    </vehicle>
    <vehicle id="236" depart="23.60">
        <route edges="9:8 8:0 0:1 1:2 2:3 3:18 18:19"/>
    </vehicle>
    <vehicle id="237" depart="23.70">
        <route edges="5:3 3:18"/>
    </vehicle>
    <vehicle id="239" depart="23.90">
        <route edges="13:12 12:1 1:2 2:3 3:5 5:7"/>
    </vehicle>
    <vehicle id="240" depart="24.00">
        <route edges="5:3 3:2 2:1 1:0 0:4"/>
    </vehicle>
    <vehicle id="244" depart="24.40">
        <route edges="17:16 16:3 3:5"/>
    </vehicle>
    <vehicle id="245" depart="24.50">
        <route edges="13:12 12:1 1:2 2:3 3:18 18:19"/>
    </vehicle>
    <vehicle id="246" depart="24.60">
        <route edges="19:18 18:3 3:2"/>
    </vehicle>
    <vehicle id="249" depart="24.90">
        <route edges="17:16 16:3 3:2 2:1 1:0 0:8 8:9"/>
    </vehicle>
    <vehicle id="250" depart="25.00">
        <route edges="19:18 18:3 3:2 2:1 1:0 0:4 4:6"/>
    </vehicle>
    <vehicle id="252" depart="25.20">
        <route edges="11:10 10:0 0:1 1:2 2:14 14:15"/>
    </vehicle>
    <vehicle id="257" depart="25.70">
        <route edges="7:5 5:3 3:2 2:1 1:12"/>
    </vehicle>
    <vehicle id="258" depart="25.80">
        <route edges="9:8 8:0 0:4 4:6"/>
    </vehicle>
    <vehicle id="261" depart="26.10">
        <route edges="7:5 5:3 3:2 2:14"/>
    </vehicle>
    <vehicle id="263" depart="26.30">
        <route edges="19:18 18:3 3:5"/>
    </vehicle>
    <vehicle id="264" depart="26.40">
        <route edges="9:8 8:0 0:1 1:2 2:3 3:16 16:17"/>
    </vehicle>
    <vehicle id="266" depart="26.60">
        <route edges="19:18 18:3 3:2 2:1 1:0 0:4 4:6"/>
    </vehicle>
    <vehicle id="269" depart="26.90">
        <route edges="14:2 2:3 3:5 5:7"/>
    </vehicle>
    <vehicle id="271" depart="27.10">
        <route edges="14:2 2:3 3:5 5:7"/>
    </vehicle>
    <vehicle id="275" depart="27.50">
        <route edges="3:5 5:7"/>
    </vehicle>
    <vehicle id="280" depart="28.00">
        <route edges="6:4 4:0 0:1 1:2 2:14 14:15"/>
    </vehicle>
    <vehicle id="281" depart="28.10">
        <route edges="7:5 5:3"/>
    </vehicle>
    <vehicle id="282" depart="28.20">
        <route edges="19:18 18:3 3:2 2:1 1:0 0:10 10:11"/>
    </vehicle>
    <vehicle id="283" depart="28.30">
        <route edges="4:0 0:1 1:12 12:13"/>
    </vehicle>
    <vehicle id="284" depart="28.40">
        <route edges="6:4 4:0 0:1 1:2 2:3 3:18 18:19"/>
    </vehicle>
    <vehicle id="285" depart="28.50">
        <route edges="7:5 5:3 3:2 2:1 1:0 0:4 4:6"/>
    </vehicle>
    <vehicle id="286" depart="28.60">
        <route edges="0:1 1:2 2:3 3:16 16:17"/>
    </vehicle>
    <vehicle id="287" depart="28.70">
        <route edges="4:0 0:8 8:9"/>
    </vehicle>
    <vehicle id="289" depart="28.90">
        <route edges="6:4 4:0 0:1 1:2 2:3"/>
    </vehicle>
    <vehicle id="291" depart="29.10">
        <route edges="8:0 0:1 1:2 2:3 3:5 5:7"/>
    </vehicle>
    <vehicle id="292" depart="29.20">
        <route edges="7:5 5:3 3:2 2:1 1:0 0:4 4:6"/>
    </vehicle>
    <vehicle id="294" depart="29.40">
        <route edges="6:4 4:0 0:10 10:11"/>
    </vehicle>
    <vehicle id="295" depart="29.50">
        <route edges="6:4 4:0 0:1 1:2 2:3 3:5 5:7"/>
    </vehicle>
    <vehicle id="297" depart="29.70">
        <route edges="13:12 12:1 1:2"/>
    </vehicle>
    <vehicle id="298" depart="29.80">
        <route edges="8:0 0:1 1:2 2:3"/>
    </vehicle>
    <vehicle id="299" depart="29.90">
        <route edges="16:3 3:2 2:1 1:0 0:4 4:6"/>
    </vehicle>
    <vehicle id="301" depart="30.10">
        <route edges="6:4 4:0 0:1 1:2 2:14"/>
    </vehicle>
    <vehicle id="302" depart="30.20">
        <route edges="1:2 2:3 3:5"/>
    </vehicle>
    <vehicle id="305" depart="30.50">
        <route edges="14:2 2:1 1:12"/>
    </vehicle>
    <vehicle id="308" depart="30.80">
        <route edges="18:3 3:2 2:1 1:0 0:4"/>
    </vehicle>
    <vehicle id="309" depart="30.90">
        <route edges="5:3 3:2 2:1"/>
    </vehicle>
    <vehicle id="310" depart="31.00">
        <route edges="9:8 8:0 0:4"/>
    </vehicle>
    <vehicle id="313" depart="31.30">
        <route edges="3:2 2:1 1:0 0:4 4:6"/>
    </vehicle>
    <vehicle id="314" depart="31.40">
        <route edges="6:4 4:0 0:1 1:2 2:3 3:5 5:7"/>
    </vehicle>
    <vehicle id="319" depart="31.90">
        <route edges="16:3 3:2 2:1 1:0 0:8 8:9"/>
    </vehicle>
    <vehicle id="320" depart="32.00">
        <route edges="14:2 2:3 3:18"/>
    </vehicle>
    <vehicle id="322" depart="32.20">
        <route edges="19:18 18:3 3:16"/>
    </vehicle>
    <vehicle id="323" depart="32.30">
        <route edges="1:2 2:3 3:5 5:7"/>
    </vehicle>
    <vehicle id="326" depart="32.60">
        <route edges="19:18 18:3 3:2 2:1 1:0 0:4"/>
    </vehicle>
    <vehicle id="330" depart="33.00">
        <route edges="17:16 16:3 3:18 18:19"/>
    </vehicle>
    <vehicle id="332" depart="33.20">
        <route edges="6:4 4:0 0:1 1:2 2:3 3:18"/>
    </vehicle>
    <vehicle id="336" depart="33.60">
        <route edges="6:4 4:0 0:1 1:2 2:3 3:5 5:7"/>
    </vehicle>
    <vehicle id="338" depart="33.80">
        <route edges="2:3 3:16 16:17"/>
    </vehicle>
    <vehicle id="342" depart="34.20">
        <route edges="16:3 3:2 2:1 1:12"/>
    </vehicle>
    <vehicle id="343" depart="34.30">
        <route edges="6:4 4:0 0:1 1:2 2:3 3:5 5:7"/>
    </vehicle>
    <vehicle id="345" depart="34.50">
        <route edges="5:3 3:2 2:14 14:15"/>
    </vehicle>
    <vehicle id="346" depart="34.60">
        <route edges="2:1 1:12"/>
    </vehicle>
    <vehicle id="351" depart="35.10">
        <route edges="13:12 12:1 1:0 0:10 10:11"/>
    </vehicle>
    <vehicle id="353" depart="35.30">
        <route edges="12:1 1:2 2:3 3:5"/>
    </vehicle>
    <vehicle id="355" depart="35.50">
        <route edges="8:0 0:1 1:2 2:3 3:18 18:19"/>
    </vehicle>
    <vehicle id="357" depart="35.70">
        <route edges="7:5 5:3 3:2 2:1 1:0 0:8 8:9"/>
    </vehicle>
    <vehicle id="358" depart="35.80">
        <route edges="15:14 14:2 2:3 3:5 5:7"/>
    </vehicle>
    <vehicle id="360" depart="36.00">
        <route edges="15:14 14:2 2:3 3:5 5:7"/>
    </vehicle>
    <vehicle id="362" depart="36.20">
        <route edges="7:5 5:3 3:18 18:19"/>
    </vehicle>
    <vehicle id="363" depart="36.30">
        <route edges="9:8 8:0 0:1 1:2 2:3 3:18 18:19"/>
    </vehicle>
    <vehicle id="368" depart="36.80">
        <route edges="17:16 16:3 3:2 2:1"/>
    </vehicle>
    <vehicle id="369" depart="36.90">
        <route edges="15:14 14:2 2:1 1:0 0:4 4:6"/>
    </vehicle>
    <vehicle id="370" depart="37.00">
        <route edges="12:1 1:2"/>
    </vehicle>
    <vehicle id="371" depart="37.10">
        <route edges="1:2 2:3 3:18 18:19"/>
    </vehicle>
    <vehicle id="373" depart="37.30">
        <route edges="7:5 5:3 3:2 2:1 1:0 0:4 4:6"/>
    </vehicle>
    <vehicle id="374" depart="37.40">
        <route edges="12:1 1:2 2:3 3:16 16:17"/>
    </vehicle>
    <vehicle id="375" depart="37.50">
        <route edges="11:10 10:0 0:1 1:2"/>
    </vehicle>
    <vehicle id="376" depart="37.60">
        <route edges="0:1 1:2 2:3 3:16 16:17"/>
    </vehicle>
    <vehicle id="377" depart="37.70">
        <route edges="17:16 16:3 3:2 2:1 1:12"/>
    </vehicle>
    <vehicle id="378" depart="37.80">
        <route edges="6:4 4:0 0:1 1:2 2:3 3:5 5:7"/>
    </vehicle>
    <vehicle id="380" depart="38.00">
        <route edges="11:10 10:0 0:1 1:2 2:3 3:18 18:19"/>
    </vehicle>
    <vehicle id="382" depart="38.20">
        <route edges="6:4 4:0 0:1 1:2 2:3"/>
    </vehicle>
    <vehicle id="385" depart="38.50">
        <route edges="17:16 16:3 3:2 2:1 1:0 0:4 4:6"/>
    </vehicle>
    <vehicle id="387" depart="38.70">
        <route edges="7:5 5:3 3:2 2:1"/>
    </vehicle>
    <vehicle id="388" depart="38.80">
        <route edges="10:0 0:1 1:2 2:3 3:5 5:7"/>
    </vehicle>
    <vehicle id="389" depart="38.90">
        <route edges="1:12 12:13"/>
    </vehicle>
    <vehicle id="390" depart="39.00">
        <route edges="19:18 18:3 3:2 2:1 1:0"/>
    </vehicle>
    <vehicle id="391" depart="39.10">
        <route edges="15:14 14:2"/>
    </vehicle>
    <vehicle id="392" depart="39.20">
        <route edges="5:3 3:2 2:14 14:15"/>
    </vehicle>
    <vehicle id="393" depart="39.30">
        <route edges="17:16 16:3 3:2 2:14"/>
    </vehicle>
    <vehicle id="394" depart="39.40">
        <route edges="16:3 3:2 2:1 1:0 0:10"/>
    </vehicle>
    <vehicle id="395" depart="39.50">
        <route edges="16:3 3:2 2:1 1:12"/>
    </vehicle>
    <vehicle id="396" depart="39.60">
        <route edges="15:14 14:2 2:1 1:0 0:4 4:6"/>
    </vehicle>
    <vehicle id="397" depart="39.70">
        <route edges="0:1 1:2 2:3 3:16 16:17"/>
    </vehicle>
    <vehicle id="398" depart="39.80">
        <route edges="19:18 18:3 3:2 2:1 1:12 12:13"/>
    </vehicle>
    <vehicle id="400" depart="40.00">
        <route edges="7:5 5:3"/>
    </vehicle>
    <vehicle id="404" depart="40.40">
        <route edges="7:5 5:3"/>
    </vehicle>
    <vehicle id="407" depart="40.70">
        <route edges="3:18"/>
    </vehicle>
    <vehicle id="412" depart="41.20">
        <route edges="13:12 12:1 1:2 2:3 3:5"/>
    </vehicle>
    <vehicle id="414" depart="41.40">
        <route edges="14:2 2:1 1:0 0:4 4:6"/>
    </vehicle>
    <vehicle id="415" depart="41.50">
        <route edges="6:4 4:0 0:10 10:11"/>
    </vehicle>
    <vehicle id="416" depart="41.60">
        <route edges="15:14 14:2 2:1 1:0 0:10 10:11"/>
    </vehicle>
    <vehicle id="418" depart="41.80">
        <route edges="7:5 5:3 3:2 2:1 1:0 0:8 8:9"/>
    </vehicle>
    <vehicle id="420" depart="42.00">
        <route edges="0:1 1:2 2:3 3:18"/>
    </vehicle>
    <vehicle id="421" depart="42.10">
        <route edges="15:14 14:2 2:1"/>
    </vehicle>
    <vehicle id="430" depart="43.00">
        <route edges="3:2 2:1 1:12 12:13"/>
    </vehicle>
    <vehicle id="431" depart="43.10">
        <route edges="10:0 0:1 1:2 2:3 3:5 5:7"/>
    </vehicle>
    <vehicle id="434" depart="43.40">
        <route edges="18:3 3:2 2:1 1:0 0:8"/>
    </vehicle>
    <vehicle id="436" depart="43.60">
        <route edges="6:4 4:0 0:1 1:12 12:13"/>
    </vehicle>
    <vehicle id="437" depart="43.70">
        <route edges="7:5 5:3 3:18 18:19"/>
    </vehicle>
    <vehicle id="438" depart="43.80">
        <route edges="15:14 14:2 2:3 3:16 16:17"/>
    </vehicle>
    <vehicle id="441" depart="44.10">
        <route edges="19:18 18:3 3:2 2:1 1:0 0:10 10:11"/>
    </vehicle>
    <vehicle id="444" depart="44.40">
        <route edges="1:0 0:4 4:6"/>
    </vehicle>
    <vehicle id="445" depart="44.50">
        <route edges="17:16 16:3 3:2 2:1 1:0 0:10 10:11"/>
    </vehicle>
    <vehicle id="446" depart="44.60">
        <route edges="6:4 4:0 0:1 1:2 2:3 3:18 18:19"/>
    </vehicle>
    <vehicle id="447" depart="44.70">
        <route edges="11:10 10:0 0:1 1:2 2:3 3:18 18:19"/>
    </vehicle>
    <vehicle id="448" depart="44.80">
        <route edges="1:0 0:8 8:9"/>
    </vehicle>
    <vehicle id="449" depart="44.90">
        <route edges="19:18 18:3 3:2 2:1 1:0 0:8 8:9"/>
    </vehicle>
    <vehicle id="450" depart="45.00">
        <route edges="11:10 10:0 0:1 1:2 2:14"/>
    </vehicle>
    <vehicle id="452" depart="45.20">
        <route edges="17:16 16:3 3:2 2:14 14:15"/>
    </vehicle>
    <vehicle id="454" depart="45.40">
        <route edges="6:4 4:0 0:1 1:2 2:14 14:15"/>
    </vehicle>
    <vehicle id="458" depart="45.80">
        <route edges="11:10 10:0 0:1 1:2 2:3 3:18 18:19"/>
    </vehicle>
    <vehicle id="459" depart="45.90">
        <route edges="19:18 18:3 3:5"/>
    </vehicle>
    <vehicle id="462" depart="46.20">
        <route edges="4:0 0:1 1:2 2:14 14:15"/>
    </vehicle>
    <vehicle id="464" depart="46.40">
        <route edges="9:8 8:0 0:1 1:2 2:3 3:16"/>
    </vehicle>
    <vehicle id="467" depart="46.70">
        <route edges="6:4 4:0 0:1 1:2 2:3 3:18"/>
    </vehicle>
    <vehicle id="468" depart="46.80">
        <route edges="3:5 5:7"/>
    </vehicle>
    <vehicle id="470" depart="47.00">
        <route edges="5:3 3:2 2:14 14:15"/>
    </vehicle>
    <vehicle id="472" depart="47.20">
        <route edges="17:16 16:3 3:2 2:14"/>
    </vehicle>
    <vehicle id="473" depart="47.30">
        <route edges="11:10 10:0 0:8 8:9"/>
    </vehicle>
    <vehicle id="474" depart="47.40">
        <route edges="1:0 0:8 8:9"/>
    </vehicle>
    <vehicle id="475" depart="47.50">
        <route edges="13:12 12:1 1:2 2:3 3:5 5:7"/>
    </vehicle>
    <vehicle id="476" depart="47.60">
        <route edges="7:5 5:3 3:16 16:17"/>
    </vehicle>
    <vehicle id="478" depart="47.80">
        <route edges="7:5 5:3 3:2 2:14 14:15"/>
    </vehicle>
    <vehicle id="479" depart="47.90">
        <route edges="3:2"/>
    </vehicle>
    <vehicle id="480" depart="48.00">
        <route edges="7:5 5:3 3:18 18:19"/>
    </vehicle>
    <vehicle id="483" depart="48.30">
        <route edges="11:10 10:0 0:1 1:2 2:3 3:5 5:7"/>
    </vehicle>
    <vehicle id="485" depart="48.50">
        <route edges="8:0 0:1 1:2 2:14"/>
    </vehicle>
    <vehicle id="488" depart="48.80">
        <route edges="1:2 2:3 3:18 18:19"/>
    </vehicle>
    <vehicle id="491" depart="49.10">
        <route edges="19:18 18:3 3:2 2:1 1:12 12:13"/>
    </vehicle>
    <vehicle id="492" depart="49.20">
        <route edges="3:2 2:14 14:15"/>
    </vehicle>
    <vehicle id="495" depart="49.50">
        <route edges="13:12 12:1 1:2 2:3"/>
    </vehicle>
    <vehicle id="496" depart="49.60">
        <route edges="1:2 2:3"/>
    </vehicle>
    <vehicle id="501" depart="50.10">
        <route edges="19:18 18:3 3:2 2:1 1:0 0:4"/>
    </vehicle>
    <vehicle id="502" depart="50.20">
        <route edges="12:1 1:2"/>
    </vehicle>
    <vehicle id="506" depart="50.60">
        <route edges="6:4 4:0 0:8 8:9"/>
    </vehicle>
    <vehicle id="509" depart="50.90">
        <route edges="6:4 4:0 0:1 1:2 2:3 3:18 18:19"/>
    </vehicle>
    <vehicle id="513" depart="51.30">
        <route edges="16:3 3:2 2:1 1:12 12:13"/>
    </vehicle>
    <vehicle id="514" depart="51.40">
        <route edges="2:3 3:18 18:19"/>
    </vehicle>
    <vehicle id="515" depart="51.50">
        <route edges="6:4 4:0 0:1 1:2 2:3 3:16 16:17"/>
    </vehicle>
    <vehicle id="519" depart="51.90">
        <route edges="9:8 8:0 0:1 1:2 2:14 14:15"/>
    </vehicle>
    <vehicle id="520" depart="52.00">
        <route edges="3:2 2:14 14:15"/>
    </vehicle>
    <vehicle id="522" depart="52.20">
        <route edges="11:10 10:0 0:1"/>
    </vehicle>
    <vehicle id="523" depart="52.30">
        <route edges="0:1"/>
    </vehicle>
    <vehicle id="524" depart="52.40">
        <route edges="10:0 0:1 1:12 12:13"/>
    </vehicle>
    <vehicle id="525" depart="52.50">
        <route edges="13:12 12:1 1:2 2:3 3:5 5:7"/>
    </vehicle>
    <vehicle id="526" depart="52.60">
        <route edges="7:5 5:3 3:2 2:1 1:0"/>
    </vehicle>
    <vehicle id="527" depart="52.70">
        <route edges="3:2 2:14 14:15"/>
    </vehicle>
    <vehicle id="530" depart="53.00">
        <route edges="6:4 4:0 0:1 1:2 2:3 3:18 18:19"/>
    </vehicle>
    <vehicle id="531" depart="53.10">
        <route edges="11:10 10:0 0:1 1:2 2:3 3:5 5:7"/>
    </vehicle>
    <vehicle id="532" depart="53.20">
        <route edges="9:8 8:0 0:1 1:2 2:3 3:18 18:19"/>
    </vehicle>
    <vehicle id="533" depart="53.30">
        <route edges="4:0 0:1 1:12"/>
    </vehicle>
    <vehicle id="535" depart="53.50">
        <route edges="14:2 2:3"/>
    </vehicle>
    <vehicle id="537" depart="53.70">
        <route edges="10:0 0:1 1:2 2:3 3:18 18:19"/>
    </vehicle>
    <vehicle id="538" depart="53.80">
        <route edges="11:10 10:0 0:1 1:2 2:3 3:18 18:19"/>
    </vehicle>
    <vehicle id="539" depart="53.90">
        <route edges="18:3 3:5"/>
    </vehicle>
    <vehicle id="540" depart="54.00">
        <route edges="14:2 2:3 3:18 18:19"/>
    </vehicle>
    <vehicle id="541" depart="54.10">
        <route edges="5:3 3:2 2:1 1:0 0:10 10:11"/>
    </vehicle>
    <vehicle id="542" depart="54.20">
        <route edges="6:4 4:0 0:1 1:2 2:3"/>
    </vehicle>
    <vehicle id="545" depart="54.50">
        <route edges="6:4 4:0 0:1 1:2 2:14 14:15"/>
    </vehicle>
    <vehicle id="546" depart="54.60">
        <route edges="6:4 4:0 0:1 1:2 2:14 14:15"/>
    </vehicle>
    <vehicle id="547" depart="54.70">
        <route edges="3:2 2:1 1:0 0:4 4:6"/>
    </vehicle>
    <vehicle id="549" depart="54.90">