<?xml version="1.0" encoding="UTF-8"?>

<!-- generated on Thu Oct 23 22:34:07 2014 by SUMO duarouter Version 0.18.0
<?xml version="1.0" encoding="UTF-8"?>

<configuration xmlns:xsi="http://www.w3.org/2001/XMLSchema-instance" xsi:noNamespaceSchemaLocation="http://sumo.sf.net/xsd/duarouterConfiguration.xsd">

    <input>
        <net-file value="corridor.net.xml"/>
        <trip-files value="experimentos/corridor.p0.4.2.trips.xml"/>
    </input>

    <output>
        <output-file value="experimentos/corridor.p0.4.2.rou.xml"/>
    </output>

    <processing>
        <ignore-errors value="true"/>
    </processing>

    <random_number>
        <random value="true"/>
    </random_number>

</configuration>
-->

<routes xmlns:xsi="http://www.w3.org/2001/XMLSchema-instance" xsi:noNamespaceSchemaLocation="http://sumo.sf.net/xsd/routes_file.xsd">
    <vehicle id="0" depart="0.00">
        <route edges="9:8 8:0 0:1 1:12"/>
    </vehicle>
    <vehicle id="1" depart="0.40">
        <route edges="12:1 1:0 0:8 8:9"/>
    </vehicle>
    <vehicle id="2" depart="0.80">
        <route edges="9:8 8:0 0:1 1:2 2:3"/>
    </vehicle>
    <vehicle id="4" depart="1.60">
        <route edges="15:14 14:2 2:3 3:18"/>
    </vehicle>
    <vehicle id="5" depart="2.00">
        <route edges="15:14 14:2 2:3"/>
    </vehicle>
    <vehicle id="6" depart="2.40">
        <route edges="18:3 3:2 2:1 1:0 0:4 4:6"/>
    </vehicle>
    <vehicle id="7" depart="2.80">
        <route edges="7:5 5:3 3:2 2:14 14:15"/>
    </vehicle>
    <vehicle id="9" depart="3.60">
        <route edges="7:5 5:3 3:2 2:1 1:0 0:4"/>
    </vehicle>
    <vehicle id="11" depart="4.40">
        <route edges="9:8 8:0 0:1 1:2 2:3"/>
    </vehicle>
    <vehicle id="15" depart="6.00">
        <route edges="13:12 12:1 1:0 0:10 10:11"/>
    </vehicle>
    <vehicle id="16" depart="6.40">
        <route edges="0:1 1:2 2:3 3:5"/>
    </vehicle>
    <vehicle id="17" depart="6.80">
        <route edges="15:14 14:2 2:3 3:18 18:19"/>
    </vehicle>
    <vehicle id="18" depart="7.20">
        <route edges="13:12 12:1 1:0 0:4 4:6"/>
    </vehicle>
    <vehicle id="20" depart="8.00">
        <route edges="17:16 16:3 3:2 2:1 1:12"/>
    </vehicle>
    <vehicle id="21" depart="8.40">
        <route edges="6:4 4:0 0:10 10:11"/>
    </vehicle>
    <vehicle id="22" depart="8.80">
        <route edges="2:3 3:18 18:19"/>
    </vehicle>
    <vehicle id="23" depart="9.20">
        <route edges="14:2 2:3 3:18 18:19"/>
    </vehicle>
    <vehicle id="28" depart="11.20">
        <route edges="3:2 2:1"/>
    </vehicle>
    <vehicle id="29" depart="11.60">
        <route edges="15:14 14:2 2:3 3:16 16:17"/>
    </vehicle>
    <vehicle id="30" depart="12.00">
        <route edges="11:10 10:0 0:1 1:12 12:13"/>
    </vehicle>
    <vehicle id="32" depart="12.80">
        <route edges="19:18 18:3 3:16 16:17"/>
    </vehicle>
    <vehicle id="33" depart="13.20">
        <route edges="4:0 0:10 10:11"/>
    </vehicle>
    <vehicle id="36" depart="14.40">
        <route edges="18:3 3:2 2:1 1:0 0:4 4:6"/>
    </vehicle>
    <vehicle id="38" depart="15.20">
        <route edges="17:16 16:3 3:5 5:7"/>
    </vehicle>
    <vehicle id="41" depart="16.40">
        <route edges="9:8 8:0 0:1 1:2 2:14 14:15"/>
    </vehicle>
    <vehicle id="42" depart="16.80">
        <route edges="5:3 3:16 16:17"/>
    </vehicle>
    <vehicle id="44" depart="17.60">
        <route edges="14:2 2:1"/>
    </vehicle>
    <vehicle id="46" depart="18.40">
        <route edges="6:4 4:0 0:1 1:2 2:3 3:5 5:7"/>
    </vehicle>
    <vehicle id="47" depart="18.80">
        <route edges="7:5 5:3 3:16"/>
    </vehicle>
    <vehicle id="49" depart="19.60">
        <route edges="9:8 8:0 0:10 10:11"/>
    </vehicle>
    <vehicle id="50" depart="20.00">
        <route edges="5:3 3:2 2:14 14:15"/>
    </vehicle>
    <vehicle id="51" depart="20.40">
        <route edges="6:4 4:0 0:10"/>
    </vehicle>
    <vehicle id="52" depart="20.80">
        <route edges="4:0 0:1 1:2 2:3 3:5 5:7"/>
    </vehicle>
    <vehicle id="54" depart="21.60">
        <route edges="15:14 14:2 2:1 1:0 0:4"/>
    </vehicle>
    <vehicle id="55" depart="22.00">
        <route edges="17:16 16:3 3:18 18:19"/>
    </vehicle>
    <vehicle id="56" depart="22.40">
        <route edges="15:14 14:2 2:1 1:0 0:8 8:9"/>
    </vehicle>
    <vehicle id="57" depart="22.80">
        <route edges="7:5 5:3 3:2 2:14 14:15"/>
    </vehicle>
    <vehicle id="59" depart="23.60">
        <route edges="6:4 4:0 0:1"/>
    </vehicle>
    <vehicle id="61" depart="24.40">
        <route edges="3:5 5:7"/>
    </vehicle>
    <vehicle id="63" depart="25.20">
        <route edges="15:14 14:2 2:3 3:5 5:7"/>
    </vehicle>
    <vehicle id="66" depart="26.40">
        <route edges="7:5 5:3 3:2 2:1 1:12 12:13"/>
    </vehicle>
    <vehicle id="70" depart="28.00">
        <route edges="2:1 1:0 0:10 10:11"/>
    </vehicle>
    <vehicle id="72" depart="28.80">
        <route edges="19:18 18:3 3:2 2:1 1:0 0:4 4:6"/>
    </vehicle>
    <vehicle id="75" depart="30.00">
        <route edges="6:4 4:0"/>
    </vehicle>
    <vehicle id="77" depart="30.80">
        <route edges="19:18 18:3 3:2 2:1 1:0 0:4 4:6"/>
    </vehicle>
    <vehicle id="83" depart="33.20">
        <route edges="7:5 5:3 3:18"/>
    </vehicle>
    <vehicle id="84" depart="33.60">
        <route edges="7:5 5:3 3:2 2:1 1:0 0:10 10:11"/>
    </vehicle>
    <vehicle id="87" depart="34.80">
        <route edges="2:14"/>
    </vehicle>
    <vehicle id="88" depart="35.20">
        <route edges="4:0 0:8 8:9"/>
    </vehicle>
    <vehicle id="89" depart="35.60">
        <route edges="19:18 18:3 3:5 5:7"/>
    </vehicle>
    <vehicle id="91" depart="36.40">
        <route edges="6:4 4:0 0:1 1:2 2:14"/>
    </vehicle>
    <vehicle id="93" depart="37.20">
        <route edges="19:18 18:3 3:16 16:17"/>
    </vehicle>
    <vehicle id="94" depart="37.60">
        <route edges="19:18 18:3 3:2 2:14"/>
    </vehicle>
    <vehicle id="97" depart="38.80">
        <route edges="15:14 14:2 2:1 1:12 12:13"/>
    </vehicle>
    <vehicle id="101" depart="40.40">
        <route edges="10:0 0:4 4:6"/>
    </vehicle>
    <vehicle id="102" depart="40.80">
        <route edges="3:2 2:1 1:0 0:8 8:9"/>
    </vehicle>
    <vehicle id="106" depart="42.40">
        <route edges="13:12 12:1 1:2 2:3 3:5 5:7"/>
    </vehicle>
    <vehicle id="109" depart="43.60">
        <route edges="4:0 0:1 1:2"/>
    </vehicle>
    <vehicle id="110" depart="44.00">
        <route edges="6:4 4:0 0:10 10:11"/>
    </vehicle>
    <vehicle id="112" depart="44.80">
        <route edges="8:0 0:10 10:11"/>
    </vehicle>
    <vehicle id="113" depart="45.20">
        <route edges="10:0 0:1 1:12"/>
    </vehicle>
    <vehicle id="115" depart="46.00">
        <route edges="9:8 8:0"/>
    </vehicle>
    <vehicle id="116" depart="46.40">
        <route edges="2:1 1:0 0:4 4:6"/>
    </vehicle>
    <vehicle id="118" depart="47.20">
        <route edges="0:1 1:12"/>
    </vehicle>
    <vehicle id="119" depart="47.60">
        <route edges="7:5 5:3 3:2 2:1 1:0 0:4 4:6"/>
    </vehicle>
    <vehicle id="121" depart="48.40">
        <route edges="7:5 5:3 3:2 2:1 1:0 0:10"/>
    </vehicle>
    <vehicle id="124" depart="49.60">
        <route edges="7:5 5:3 3:2 2:1 1:0 0:4 4:6"/>
    </vehicle>
    <vehicle id="126" depart="50.40">
        <route edges="16:3 3:5 5:7"/>
    </vehicle>
    <vehicle id="127" depart="50.80">
        <route edges="17:16 16:3 3:2 2:1 1:0"/>
    </vehicle>
    <vehicle id="128" depart="51.20">
        <route edges="1:0 0:10 10:11"/>
    </vehicle>
    <vehicle id="131" depart="52.40">
        <route edges="3:2 2:14 14:15"/>
    </vehicle>
    <vehicle id="132" depart="52.80">
        <route edges="6:4 4:0 0:10 10:11"/>
    </vehicle>
    <vehicle id="135" depart="54.00">
        <route edges="7:5 5:3 3:2 2:1 1:0 0:8 8:9"/>
    </vehicle>
    <vehicle id="136" depart="54.40">
        <route edges="19:18 18:3 3:2 2:1 1:12 12:13"/>
    </vehicle>
    <vehicle id="137" depart="54.80">
        <route edges="8:0 0:1 1:2 2:3 3:5"/>
    </vehicle>
    <vehicle id="144" depart="57.60">
        <route edges="11:10 10:0 0:1"/>
    </vehicle>
    <vehicle id="147" depart="58.80">
        <route edges="19:18 18:3 3:2 2:1 1:0 0:4 4:6"/>
    </vehicle>
    <vehicle id="148" depart="59.20">
        <route edges="15:14 14:2 2:1 1:0 0:10 10:11"/>
    </vehicle>
    <vehicle id="151" depart="60.40">
        <route edges="9:8 8:0 0:1 1:12 12:13"/>
    </vehicle>
    <vehicle id="152" depart="60.80">
        <route edges="11:10 10:0 0:1 1:2"/>
    </vehicle>
    <vehicle id="154" depart="61.60">
        <route edges="6:4 4:0 0:8 8:9"/>
    </vehicle>
    <vehicle id="155" depart="62.00">
        <route edges="7:5 5:3 3:2"/>
    </vehicle>
    <vehicle id="157" depart="62.80">
        <route edges="7:5 5:3 3:2 2:1 1:0 0:8 8:9"/>
    </vehicle>
    <vehicle id="158" depart="63.20">
        <route edges="16:3 3:2 2:1 1:0 0:4 4:6"/>
    </vehicle>
    <vehicle id="159" depart="63.60">
        <route edges="16:3 3:2 2:1 1:0 0:10 10:11"/>
    </vehicle>
    <vehicle id="161" depart="64.40">
        <route edges="15:14 14:2 2:1 1:0 0:8 8:9"/>
    </vehicle>
    <vehicle id="162" depart="64.80">
        <route edges="13:12 12:1 1:0 0:4"/>
    </vehicle>
    <vehicle id="166" depart="66.40">
        <route edges="17:16 16:3 3:5 5:7"/>
    </vehicle>
    <vehicle id="168" depart="67.20">
        <route edges="15:14 14:2 2:3 3:5 5:7"/>
    </vehicle>
    <vehicle id="171" depart="68.40">
        <route edges="9:8 8:0 0:4 4:6"/>
    </vehicle>
    <vehicle id="172" depart="68.80">
        <route edges="19:18 18:3 3:2 2:1"/>
    </vehicle>
    <vehicle id="173" depart="69.20">
        <route edges="9:8 8:0 0:1"/>
    </vehicle>
    <vehicle id="174" depart="69.60">
        <route edges="17:16 16:3 3:2 2:1 1:0 0:8 8:9"/>
    </vehicle>
    <vehicle id="176" depart="70.40">
        <route edges="4:0 0:8"/>
    </vehicle>
    <vehicle id="178" depart="71.20">
        <route edges="18:3 3:2 2:1 1:0 0:4 4:6"/>
    </vehicle>
    <vehicle id="179" depart="71.60">
        <route edges="18:3 3:2 2:14"/>
    </vehicle>
    <vehicle id="181" depart="72.40">
        <route edges="17:16 16:3 3:18 18:19"/>
    </vehicle>
    <vehicle id="182" depart="72.80">
        <route edges="6:4 4:0 0:1 1:2 2:14 14:15"/>
    </vehicle>
    <vehicle id="185" depart="74.00">
        <route edges="9:8 8:0 0:1 1:2 2:3 3:16"/>
    </vehicle>
    <vehicle id="186" depart="74.40">
        <route edges="17:16 16:3 3:18 18:19"/>
    </vehicle>
    <vehicle id="187" depart="74.80">
        <route edges="10:0 0:1 1:2 2:3"/>
    </vehicle>
    <vehicle id="189" depart="75.60">
        <route edges="6:4 4:0"/>
    </vehicle>
    <vehicle id="190" depart="76.00">
        <route edges="19:18 18:3 3:5"/>
    </vehicle>
    <vehicle id="192" depart="76.80">
        <route edges="14:2 2:1 1:0 0:4 4:6"/>
    </vehicle>
    <vehicle id="194" depart="77.60">
        <route edges="7:5 5:3 3:2 2:14 14:15"/>
    </vehicle>
    <vehicle id="196" depart="78.40">
        <route edges="11:10 10:0 0:1 1:2 2:3 3:18 18:19"/>
    </vehicle>
    <vehicle id="197" depart="78.80">
        <route edges="7:5 5:3 3:2 2:1 1:0"/>
    </vehicle>
    <vehicle id="198" depart="79.20">
        <route edges="2:3"/>
    </vehicle>
    <vehicle id="199" depart="79.60">
        <route edges="13:12 12:1 1:2 2:3 3:5 5:7"/>
    </vehicle>
    <vehicle id="201" depart="80.40">
        <route edges="5:3 3:2 2:14 14:15"/>
    </vehicle>
    <vehicle id="202" depart="80.80">
        <route edges="3:5"/>
    </vehicle>
    <vehicle id="204" depart="81.60">
        <route edges="7:5 5:3 3:2 2:1 1:0 0:4 4:6"/>
    </vehicle>
    <vehicle id="205" depart="82.00">
        <route edges="14:2 2:3 3:18 18:19"/>
    </vehicle>
    <vehicle id="207" depart="82.80">
        <route edges="7:5 5:3 3:2 2:1 1:0 0:4 4:6"/>
    </vehicle>
    <vehicle id="208" depart="83.20">
        <route edges="8:0 0:1 1:2 2:3 3:18 18:19"/>
    </vehicle>
    <vehicle id="209" depart="83.60">
        <route edges="8:0 0:1 1:2 2:3 3:16 16:17"/>
    </vehicle>
    <vehicle id="210" depart="84.00">
        <route edges="7:5 5:3 3:2 2:1 1:0 0:8"/>
    </vehicle>
    <vehicle id="211" depart="84.40">
        <route edges="15:14 14:2 2:1 1:0 0:8 8:9"/>
    </vehicle>
    <vehicle id="212" depart="84.80">
        <route edges="7:5 5:3 3:18 18:19"/>
    </vehicle>
    <vehicle id="214" depart="85.60">
        <route edges="19:18 18:3 3:2 2:1 1:0 0:8"/>
    </vehicle>
    <vehicle id="215" depart="86.00">
        <route edges="4:0 0:1 1:2 2:3 3:5 5:7"/>
    </vehicle>
    <vehicle id="216" depart="86.40">
        <route edges="15:14 14:2 2:1 1:0 0:4 4:6"/>
    </vehicle>
    <vehicle id="217" depart="86.80">
        <route edges="19:18 18:3"/>
    </vehicle>
    <vehicle id="218" depart="87.20">
        <route edges="17:16 16:3 3:18 18:19"/>
    </vehicle>
    <vehicle id="221" depart="88.40">
        <route edges="2:3 3:18"/>
    </vehicle>
    <vehicle id="223" depart="89.20">
        <route edges="3:2 2:1 1:12 12:13"/>
    </vehicle>
    <vehicle id="225" depart="90.00">
        <route edges="17:16 16:3 3:2 2:1 1:12"/>
    </vehicle>
    <vehicle id="226" depart="90.40">
        <route edges="19:18 18:3 3:2 2:1 1:0 0:4 4:6"/>
    </vehicle>
    <vehicle id="229" depart="91.60">
        <route edges="14:2 2:3 3:5"/>
    </vehicle>
    <vehicle id="233" depart="93.20">
        <route edges="6:4 4:0 0:1 1:2 2:3 3:5 5:7"/>
    </vehicle>
    <vehicle id="236" depart="94.40">
        <route edges="3:2"/>
    </vehicle>
    <vehicle id="237" depart="94.80">
        <route edges="13:12 12:1 1:2 2:3 3:5"/>
    </vehicle>
    <vehicle id="239" depart="95.60">
        <route edges="7:5 5:3 3:2 2:1 1:0 0:4 4:6"/>
    </vehicle>
    <vehicle id="240" depart="96.00">
        <route edges="13:12 12:1 1:0"/>
    </vehicle>
    <vehicle id="241" depart="96.40">
        <route edges="2:1 1:0 0:4"/>
    </vehicle>
    <vehicle id="243" depart="97.20">
        <route edges="6:4 4:0 0:1 1:2 2:3 3:18"/>
    </vehicle>
    <vehicle id="246" depart="98.40">
        <route edges="7:5 5:3 3:2 2:1 1:0 0:4 4:6"/>
    </vehicle>
    <vehicle id="247" depart="98.80">
        <route edges="12:1 1:2 2:14 14:15"/>
    </vehicle>
    <vehicle id="248" depart="99.20">
        <route edges="19:18 18:3 3:2 2:14"/>
    </vehicle>
    <vehicle id="249" depart="99.60">
        <route edges="0:1 1:2 2:3"/>
    </vehicle>
    <vehicle id="252" depart="100.80">
        <route edges="10:0 0:1 1:2 2:3 3:18 18:19"/>
    </vehicle>
    <vehicle id="253" depart="101.20">
        <route edges="19:18 18:3 3:2 2:1 1:0 0:4 4:6"/>
    </vehicle>
    <vehicle id="254" depart="101.60">
        <route edges="19:18 18:3 3:2 2:1 1:0 0:10 10:11"/>
    </vehicle>
    <vehicle id="256" depart="102.40">
        <route edges="7:5 5:3 3:16 16:17"/>
    </vehicle>
    <vehicle id="257" depart="102.80">
        <route edges="13:12 12:1 1:0 0:10 10:11"/>
    </vehicle>
    <vehicle id="259" depart="103.60">
        <route edges="13:12 12:1"/>
    </vehicle>
    <vehicle id="260" depart="104.00">
        <route edges="13:12 12:1 1:0 0:4 4:6"/>
    </vehicle>
    <vehicle id="261" depart="104.40">
        <route edges="5:3 3:18"/>
    </vehicle>
    <vehicle id="262" depart="104.80">
        <route edges="14:2 2:1 1:0 0:4 4:6"/>
    </vehicle>
    <vehicle id="264" depart="105.60">
        <route edges="11:10 10:0 0:4 4:6"/>
    </vehicle>
    <vehicle id="269" depart="107.60">
        <route edges="4:0 0:10 10:11"/>
    </vehicle>
    <vehicle id="270" depart="108.00">
        <route edges="13:12 12:1 1:2 2:3 3:16 16:17"/>
    </vehicle>
    <vehicle id="272" depart="108.80">
        <route edges="4:0 0:8 8:9"/>
    </vehicle>
    <vehicle id="273" depart="109.20">
        <route edges="7:5 5:3 3:2 2:1 1:12 12:13"/>
    </vehicle>
    <vehicle id="274" depart="109.60">
        <route edges="17:16 16:3 3:2 2:1 1:0 0:8 8:9"/>
    </vehicle>
    <vehicle id="275" depart="110.00">
        <route edges="19:18 18:3 3:5 5:7"/>
    </vehicle>
    <vehicle id="277" depart="110.80">
        <route edges="6:4 4:0 0:1 1:2 2:3 3:5 5:7"/>
    </vehicle>
    <vehicle id="278" depart="111.20">
        <route edges="15:14 14:2 2:3 3:18 18:19"/>
    </vehicle>
    <vehicle id="279" depart="111.60">
        <route edges="10:0 0:1 1:2 2:3 3:5 5:7"/>
    </vehicle>
    <vehicle id="280" depart="112.00">
        <route edges="6:4 4:0 0:1 1:2 2:3 3:5"/>
    </vehicle>
    <vehicle id="281" depart="112.40">
        <route edges="16:3 3:2 2:1 1:0 0:4 4:6"/>
    </vehicle>
    <vehicle id="282" depart="112.80">
        <route edges="13:12 12:1 1:2 2:14"/>
    </vehicle>
    <vehicle id="284" depart="113.60">
        <route edges="15:14 14:2 2:3 3:5 5:7"/>
    </vehicle>
    <vehicle id="285" depart="114.00">
        <route edges="6:4 4:0 0:10 10:11"/>
    </vehicle>
    <vehicle id="289" depart="115.60">
        <route edges="8:0 0:4 4:6"/>
    </vehicle>
    <vehicle id="290" depart="116.00">
        <route edges="10:0 0:1 1:2"/>
    </vehicle>
    <vehicle id="292" depart="116.80">
        <route edges="7:5 5:3 3:2 2:1 1:0 0:4"/>
    </vehicle>
    <vehicle id="293" depart="117.20">
        <route edges="9:8 8:0 0:1 1:2 2:3 3:16 16:17"/>
    </vehicle>
    <vehicle id="294" depart="117.60">
        <route edges="4:0 0:1 1:12 12:13"/>
    </vehicle>
    <vehicle id="295" depart="118.00">
        <route edges="11:10 10:0 0:1 1:2 2:3"/>
    </vehicle>
    <vehicle id="296" depart="118.40">
        <route edges="19:18 18:3 3:2 2:1 1:0 0:4 4:6"/>
    </vehicle>
    <vehicle id="297" depart="118.80">
        <route edges="1:2 2:3 3:5 5:7"/>
    </vehicle>
    <vehicle id="301" depart="120.40">
        <route edges="17:16 16:3 3:2 2:1"/>
    </vehicle>
    <vehicle id="304" depart="121.60">
        <route edges="19:18 18:3 3:2 2:14 14:15"/>
    </vehicle>
    <vehicle id="305" depart="122.00">
        <route edges="17:16 16:3 3:2 2:1 1:12 12:13"/>
    </vehicle>
    <vehicle id="306" depart="122.40">
        <route edges="14:2 2:1 1:0 0:4 4:6"/>
    </vehicle>
    <vehicle id="310" depart="124.00">
        <route edges="7:5 5:3 3:2"/>
    </vehicle>
    <vehicle id="311" depart="124.40">
        <route edges="11:10 10:0 0:1 1:2 2:3"/>
    </vehicle>
    <vehicle id="312" depart="124.80">
        <route edges="13:12 12:1 1:2 2:3 3:5 5:7"/>
    </vehicle>
    <vehicle id="317" depart="126.80">
        <route edges="6:4 4:0 0:1"/>
    </vehicle>
    <vehicle id="319" depart="127.60">
        <route edges="6:4 4:0 0:1 1:2 2:3 3:16"/>
    </vehicle>
    <vehicle id="320" depart="128.00">
        <route edges="6:4 4:0 0:1 1:2 2:3"/>
    </vehicle>
    <vehicle id="326" depart="130.40">
        <route edges="9:8 8:0 0:1 1:2 2:3 3:18 18:19"/>
    </vehicle>
    <vehicle id="328" depart="131.20">
        <route edges="17:16 16:3 3:2"/>
    </vehicle>
    <vehicle id="329" depart="131.60">
        <route edges="4:0 0:1 1:2 2:3 3:16 16:17"/>
    </vehicle>
    <vehicle id="330" depart="132.00">
        <route edges="19:18 18:3 3:2 2:1 1:12"/>
    </vehicle>
    <vehicle id="332" depart="132.80">
        <route edges="5:3 3:2 2:1 1:12 12:13"/>
    </vehicle>
    <vehicle id="333" depart="133.20">
        <route edges="8:0 0:4 4:6"/>
    </vehicle>
    <vehicle id="334" depart="133.60">
        <route edges="12:1 1:0 0:8 8:9"/>
    </vehicle>
    <vehicle id="335" depart="134.00">
        <route edges="3:5"/>
    </vehicle>
    <vehicle id="336" depart="134.40">
        <route edges="14:2 2:1 1:0 0:8"/>
    </vehicle>
    <vehicle id="339" depart="135.60">
        <route edges="18:3 3:2 2:14 14:15"/>
    </vehicle>
    <vehicle id="343" depart="137.20">
        <route edges="17:16 16:3 3:2 2:1 1:0"/>
    </vehicle>
    <vehicle id="344" depart="137.60">
        <route edges="6:4 4:0 0:8 8:9"/>
    </vehicle>
    <vehicle id="345" depart="138.00">
        <route edges="3:2 2:14"/>
    </vehicle>
    <vehicle id="346" depart="138.40">
        <route edges="15:14 14:2 2:3 3:5 5:7"/>
    </vehicle>
    <vehicle id="347" depart="138.80">
        <route edges="7:5 5:3 3:2 2:1 1:0 0:8"/>
    </vehicle>
    <vehicle id="348" depart="139.20">
        <route edges="14:2 2:3 3:16"/>
    </vehicle>
    <vehicle id="349" depart="139.60">
        <route edges="4:0"/>
    </vehicle>
    <vehicle id="351" depart="140.40">
        <route edges="6:4 4:0 0:8"/>
    </vehicle>
    <vehicle id="352" depart="140.80">
        <route edges="17:16 16:3 3:2 2:1 1:0"/>
    </vehicle>
    <vehicle id="353" depart="141.20">
        <route edges="15:14 14:2 2:3"/>
    </vehicle>
    <vehicle id="354" depart="141.60">
        <route edges="13:12 12:1 1:2 2:3 3:18 18:19"/>
    </vehicle>
    <vehicle id="355" depart="142.00">
        <route edges="15:14 14:2 2:1 1:0 0:4 4:6"/>
    </vehicle>
    <vehicle id="356" depart="142.40">
        <route edges="16:3 3:5 5:7"/>
    </vehicle>
    <vehicle id="357" depart="142.80">
        <route edges="7:5 5:3 3:2 2:1"/>
    </vehicle>
    <vehicle id="358" depart="143.20">
        <route edges="13:12 12:1 1:2 2:3 3:18 18:19"/>
    </vehicle>
    <vehicle id="359" depart="143.60">
        <route edges="13:12 12:1 1:0 0:8 8:9"/>
    </vehicle>
    <vehicle id="360" depart="144.00">
        <route edges="5:3 3:16"/>
    </vehicle>
    <vehicle id="362" depart="144.80">
        <route edges="10:0 0:1 1:2 2:3 3:18 18:19"/>
    </vehicle>
    <vehicle id="363" depart="145.20">
        <route edges="7:5 5:3 3:2 2:1 1:0 0:8 8:9"/>
    </vehicle>
    <vehicle id="364" depart="145.60">
        <route edges="6:4 4:0 0:1 1:2 2:14 14:15"/>
    </vehicle>
    <vehicle id="366" depart="146.40">
        <route edges="2:3 3:16"/>
    </vehicle>
    <vehicle id="368" depart="147.20">
        <route edges="15:14 14:2 2:1 1:0 0:4 4:6"/>
    </vehicle>
    <vehicle id="370" depart="148.00">
        <route edges="5:3 3:18 18:19"/>
    </vehicle>
    <vehicle id="371" depart="148.40">
        <route edges="5:3 3:16 16:17"/>
    </vehicle>
    <vehicle id="374" depart="149.60">
        <route edges="6:4 4:0 0:1 1:12 12:13"/>
    </vehicle>
    <vehicle id="375" depart="150.00">
        <route edges="4:0 0:1 1:12 12:13"/>
    </vehicle>
    <vehicle id="376" depart="150.40">
        <route edges="15:14 14:2 2:3 3:16 16:17"/>
    </vehicle>
    <vehicle id="377" depart="150.80">
        <route edges="4:0 0:1 1:2 2:14 14:15"/>
    </vehicle>
    <vehicle id="380" depart="152.00">
        <route edges="13:12 12:1 1:2 2:3 3:16 16:17"/>
    </vehicle>
    <vehicle id="382" depart="152.80">
        <route edges="13:12 12:1 1:0 0:4 4:6"/>
    </vehicle>
    <vehicle id="385" depart="154.00">
        <route edges="7:5 5:3 3:2"/>
    </vehicle>
    <vehicle id="387" depart="154.80">
        <route edges="2:1 1:0"/>
    </vehicle>
    <vehicle id="389" depart="155.60">
        <route edges="13:12 12:1 1:2 2:3"/>
    </vehicle>
    <vehicle id="392" depart="156.80">
        <route edges="9:8 8:0 0:1 1:2 2:3 3:5"/>
    </vehicle>
    <vehicle id="395" depart="158.00">
        <route edges="13:12 12:1 1:2 2:14 14:15"/>
    </vehicle>
    <vehicle id="398" depart="159.20">
        <route edges="18:3 3:2 2:1 1:0 0:10 10:11"/>
    </vehicle>
    <vehicle id="400" depart="160.00">
        <route edges="4:0 0:1 1:12 12:13"/>
    </vehicle>
    <vehicle id="402" depart="160.80">
        <route edges="11:10 10:0 0:1 1:2 2:3"/>
    </vehicle>
    <vehicle id="405" depart="162.00">
        <route edges="7:5 5:3 3:18 18:19"/>
    </vehicle>
    <vehicle id="406" depart="162.40">
        <route edges="7:5 5:3 3:2 2:1 1:0 0:4"/>
    </vehicle>
    <vehicle id="409" depart="163.60">
        <route edges="4:0 0:1 1:2 2:3 3:16 16:17"/>
    </vehicle>
    <vehicle id="411" depart="164.40">
        <route edges="19:18 18:3 3:2"/>
    </vehicle>
    <vehicle id="414" depart="165.60">
        <route edges="11:10 10:0 0:4"/>
    </vehicle>
    <vehicle id="421" depart="168.40">
        <route edges="19:18 18:3"/>
    </vehicle>
    <vehicle id="425" depart="170.00">
        <route edges="13:12 12:1 1:0 0:4"/>
    </vehicle>
    <vehicle id="426" depart="170.40">
        <route edges="1:0 0:4 4:6"/>
    </vehicle>
    <vehicle id="429" depart="171.60">
        <route edges="13:12 12:1 1:2 2:3 3:5 5:7"/>
    </vehicle>
    <vehicle id="430" depart="172.00">
        <route edges="13:12 12:1 1:0 0:4 4:6"/>
    </vehicle>
    <vehicle id="432" depart="172.80">
        <route edges="11:10 10:0 0:1 1:2 2:3 3:16 16:17"/>
    </vehicle>
    <vehicle id="433" depart="173.20">
        <route edges="6:4 4:0 0:1"/>
    </vehicle>
    <vehicle id="434" depart="173.60">
        <route edges="12:1 1:2 2:3 3:5"/>
    </vehicle>
    <vehicle id="435" depart="174.00">
        <route edges="6:4 4:0 0:10 10:11"/>
    </vehicle>
    <vehicle id="437" depart="174.80">
        <route edges="12:1 1:0 0:10 10:11"/>
    </vehicle>
    <vehicle id="438" depart="175.20">
        <route edges="11:10 10:0 0:8 8:9"/>
    </vehicle>
    <vehicle id="441" depart="176.40">
        <route edges="9:8 8:0 0:1 1:2 2:3 3:16"/>
    </vehicle>
    <vehicle id="443" depart="177.20">
        <route edges="17:16 16:3 3:2 2:1 1:0 0:4 4:6"/>
    </vehicle>
    <vehicle id="446" depart="178.40">
        <route edges="7:5 5:3 3:2 2:14 14:15"/>
    </vehicle>
    <vehicle id="447" depart="178.80">
        <route edges="8:0 0:4 4:6"/>
    </vehicle>
    <vehicle id="449" depart="179.60">
        <route edges="7:5 5:3 3:2 2:1 1:0 0:4 4:6"/>
    </vehicle>
    <vehicle id="451" depart="180.40">
        <route edges="4:0 0:1 1:2 2:3 3:16"/>
    </vehicle>
    <vehicle id="452" depart="180.80">
        <route edges="4:0 0:1 1:2 2:3 3:5 5:7"/>
    </vehicle>
    <vehicle id="454" depart="181.60">
        <route edges="6:4 4:0"/>
    </vehicle>
    <vehicle id="455" depart="182.00">
        <route edges="4:0 0:1 1:2 2:3 3:16 16:17"/>
    </vehicle>
    <vehicle id="456" depart="182.40">
        <route edges="7:5 5:3 3:2 2:1 1:0"/>
    </vehicle>
    <vehicle id="457" depart="182.80">
        <route edges="5:3 3:2 2:1 1:12"/>
    </vehicle>
    <vehicle id="458" depart="183.20">
        <route edges="0:1 1:2 2:14 14:15"/>
    </vehicle>
    <vehicle id="461" depart="184.40">
        <route edges="15:14 14:2 2:3 3:5 5:7"/>
    </vehicle>
    <vehicle id="463" depart="185.20">
        <route edges="6:4 4:0 0:1"/>
    </vehicle>
    <vehicle id="464" depart="185.60">
        <route edges="13:12 12:1 1:0 0:8 8:9"/>
    </vehicle>
    <vehicle id="466" depart="186.40">
        <route edges="8:0 0:1 1:2 2:3 3:5"/>
    </vehicle>
    <vehicle id="467" depart="186.80">
        <route edges="18:3"/>
    </vehicle>
    <vehicle id="470" depart="188.00">
        <route edges="11:10 10:0 0:1 1:2 2:3 3:18 18:19"/>
    </vehicle>
    <vehicle id="471" depart="188.40">
        <route edges="15:14 14:2 2:3 3:5 5:7"/>
    </vehicle>
    <vehicle id="472" depart="188.80">
        <route edges="10:0 0:1 1:2 2:3 3:16 16:17"/>
    </vehicle>
    <vehicle id="474" depart="189.60">
        <route edges="9:8 8:0 0:1 1:2 2:3 3:16 16:17"/>
    </vehicle>
    <vehicle id="476" depart="190.40">
        <route edges="19:18 18:3 3:2 2:1 1:0 0:4 4:6"/>
    </vehicle>
    <vehicle id="477" depart="190.80">
        <route edges="17:16 16:3 3:18 18:19"/>
    </vehicle>
    <vehicle id="478" depart="191.20">
        <route edges="0:4 4:6"/>
    </vehicle>
    <vehicle id="479" depart="191.60">
        <route edges="7:5 5:3 3:2 2:1 1:0"/>
    </vehicle>
    <vehicle id="480" depart="192.00">
        <route edges="13:12 12:1 1:0 0:4"/>
    </vehicle>
    <vehicle id="482" depart="192.80">
        <route edges="13:12 12:1 1:2 2:3 3:16 16:17"/>
    </vehicle>
    <vehicle id="483" depart="193.20">
        <route edges="19:18 18:3 3:2"/>
    </vehicle>
    <vehicle id="486" depart="194.40">
        <route edges="3:2 2:1 1:0"/>
    </vehicle>
    <vehicle id="487" depart="194.80">
        <route edges="13:12 12:1 1:2 2:3 3:5 5:7"/>
    </vehicle>
    <vehicle id="488" depart="195.20">
        <route edges="6:4 4:0 0:1 1:2 2:3"/>
    </vehicle>
    <vehicle id="490" depart="196.00">
        <route edges="11:10 10:0 0:1"/>
    </vehicle>
    <vehicle id="491" depart="196.40">
        <route edges="18:3 3:16 16:17"/>
    </vehicle>
    <vehicle id="494" depart="197.60">
        <route edges="7:5 5:3 3:18 18:19"/>
    </vehicle>
    <vehicle id="496" depart="198.40">
        <route edges="7:5 5:3 3:2 2:1 1:0 0:10"/>
    </vehicle>
    <vehicle id="497" depart="198.80">
        <route edges="15:14 14:2 2:1 1:0 0:4 4:6"/>
    </vehicle>
    <vehicle id="498" depart="199.20">
        <route edges="4:0 0:1 1:2 2:3 3:18 18:19"/>
    </vehicle>
    <vehicle id="501" depart="200.40">
        <route edges="15:14 14:2 2:3 3:5 5:7"/>
    </vehicle>
    <vehicle id="503" depart="201.20">
        <route edges="7:5 5:3 3:18 18:19"/>
    </vehicle>
    <vehicle id="507" depart="202.80">
        <route edges="11:10 10:0 0:4 4:6"/>
    </vehicle>
    <vehicle id="508" depart="203.20">
        <route edges="2:3 3:16"/>
    </vehicle>
    <vehicle id="509" depart="203.60">
        <route edges="11:10 10:0 0:1 1:2 2:3 3:5"/>
    </vehicle>
    <vehicle id="510" depart="204.00">
        <route edges="11:10 10:0 0:1 1:2 2:3 3:5 5:7"/>
    </vehicle>
    <vehicle id="512" depart="204.80">
        <route edges="15:14 14:2 2:1 1:0"/>
    </vehicle>
    <vehicle id="513" depart="205.20">
        <route edges="6:4 4:0 0:1 1:12 12:13"/>
    </vehicle>
    <vehicle id="514" depart="205.60">
        <route edges="17:16 16:3 3:5 5:7"/>
    </vehicle>
    <vehicle id="515" depart="206.00">
        <route edges="7:5 5:3 3:2 2:1 1:0 0:8"/>
    </vehicle>
    <vehicle id="518" depart="207.20">
        <route edges="0:1 1:2 2:3 3:16 16:17"/>
    </vehicle>
    <vehicle id="519" depart="207.60">
        <route edges="19:18 18:3 3:2 2:1 1:0 0:8 8:9"/>