<?xml version="1.0" encoding="UTF-8"?>

<!-- generated on Thu Oct 23 22:34:35 2014 by SUMO duarouter Version 0.18.0
<?xml version="1.0" encoding="UTF-8"?>

<configuration xmlns:xsi="http://www.w3.org/2001/XMLSchema-instance" xsi:noNamespaceSchemaLocation="http://sumo.sf.net/xsd/duarouterConfiguration.xsd">

    <input>
        <net-file value="corridor.net.xml"/>
        <trip-files value="experimentos/corridor.p0.7.5.trips.xml"/>
    </input>

    <output>
        <output-file value="experimentos/corridor.p0.7.5.rou.xml"/>
    </output>

    <processing>
        <ignore-errors value="true"/>
    </processing>

    <random_number>
        <random value="true"/>
    </random_number>

</configuration>
-->

<routes xmlns:xsi="http://www.w3.org/2001/XMLSchema-instance" xsi:noNamespaceSchemaLocation="http://sumo.sf.net/xsd/routes_file.xsd">
    <vehicle id="0" depart="0.00">
        <route edges="13:12 12:1 1:0 0:10 10:11"/>
    </vehicle>
    <vehicle id="1" depart="0.70">
        <route edges="18:3 3:2 2:1 1:0 0:4"/>
    </vehicle>
    <vehicle id="2" depart="1.40">
        <route edges="9:8 8:0 0:1 1:2 2:3 3:5 5:7"/>
    </vehicle>
    <vehicle id="3" depart="2.10">
        <route edges="11:10 10:0 0:1 1:2 2:3 3:18 18:19"/>
    </vehicle>
    <vehicle id="4" depart="2.80">
        <route edges="18:3 3:2"/>
    </vehicle>
    <vehicle id="9" depart="6.30">
        <route edges="19:18 18:3 3:2 2:1 1:0 0:4"/>
    </vehicle>
    <vehicle id="10" depart="7.00">
        <route edges="7:5 5:3 3:2 2:1 1:0 0:10 10:11"/>
    </vehicle>
    <vehicle id="11" depart="7.70">
        <route edges="1:0 0:8 8:9"/>
    </vehicle>
    <vehicle id="12" depart="8.40">
        <route edges="6:4 4:0 0:1 1:2"/>
    </vehicle>
    <vehicle id="13" depart="9.10">
        <route edges="4:0 0:1 1:2 2:14 14:15"/>
    </vehicle>
    <vehicle id="14" depart="9.80">
        <route edges="11:10 10:0 0:1 1:2 2:3 3:16 16:17"/>
    </vehicle>
    <vehicle id="15" depart="10.50">
        <route edges="5:3 3:18 18:19"/>
    </vehicle>
    <vehicle id="16" depart="11.20">
        <route edges="13:12 12:1 1:2 2:3 3:5 5:7"/>
    </vehicle>
    <vehicle id="18" depart="12.60">
        <route edges="13:12 12:1 1:0 0:4 4:6"/>
    </vehicle>
    <vehicle id="19" depart="13.30">
        <route edges="7:5 5:3 3:2 2:1 1:0 0:10 10:11"/>
    </vehicle>
    <vehicle id="20" depart="14.00">
        <route edges="11:10 10:0 0:1 1:2 2:3 3:5 5:7"/>
    </vehicle>
    <vehicle id="21" depart="14.70">
        <route edges="4:0 0:8 8:9"/>
    </vehicle>
    <vehicle id="25" depart="17.50">
        <route edges="6:4 4:0 0:1 1:2 2:14 14:15"/>
    </vehicle>
    <vehicle id="26" depart="18.20">
        <route edges="2:1 1:0 0:4 4:6"/>
    </vehicle>
    <vehicle id="28" depart="19.60">
        <route edges="19:18 18:3 3:5 5:7"/>
    </vehicle>
    <vehicle id="30" depart="21.00">
        <route edges="15:14 14:2"/>
    </vehicle>
    <vehicle id="31" depart="21.70">
        <route edges="19:18 18:3 3:16"/>
    </vehicle>
    <vehicle id="32" depart="22.40">
        <route edges="15:14 14:2 2:3 3:18 18:19"/>
    </vehicle>
    <vehicle id="33" depart="23.10">
        <route edges="4:0 0:8 8:9"/>
    </vehicle>
    <vehicle id="35" depart="24.50">
        <route edges="12:1 1:2 2:3 3:5 5:7"/>
    </vehicle>
    <vehicle id="36" depart="25.20">
        <route edges="18:3 3:2 2:1 1:12 12:13"/>
    </vehicle>
    <vehicle id="38" depart="26.60">
        <route edges="13:12 12:1 1:2 2:3 3:16 16:17"/>
    </vehicle>
    <vehicle id="40" depart="28.00">
        <route edges="0:1 1:2 2:3 3:18 18:19"/>
    </vehicle>
    <vehicle id="42" depart="29.40">
        <route edges="1:2 2:14"/>
    </vehicle>
    <vehicle id="43" depart="30.10">
        <route edges="1:2 2:3 3:16 16:17"/>
    </vehicle>
    <vehicle id="44" depart="30.80">
        <route edges="9:8 8:0 0:4 4:6"/>
    </vehicle>
    <vehicle id="45" depart="31.50">
        <route edges="14:2 2:3 3:5 5:7"/>
    </vehicle>
    <vehicle id="48" depart="33.60">
        <route edges="14:2 2:3 3:5 5:7"/>
    </vehicle>
    <vehicle id="52" depart="36.40">
        <route edges="5:3 3:2 2:1 1:0 0:4 4:6"/>
    </vehicle>
    <vehicle id="53" depart="37.10">
        <route edges="19:18 18:3 3:2 2:14"/>
    </vehicle>
    <vehicle id="54" depart="37.80">
        <route edges="2:3 3:5 5:7"/>
    </vehicle>
    <vehicle id="58" depart="40.60">
        <route edges="18:3 3:5 5:7"/>
    </vehicle>
    <vehicle id="59" depart="41.30">
        <route edges="0:1 1:2 2:3 3:18 18:19"/>
    </vehicle>
    <vehicle id="61" depart="42.70">
        <route edges="16:3 3:2 2:1 1:0 0:8 8:9"/>
    </vehicle>
    <vehicle id="62" depart="43.40">
        <route edges="12:1 1:0"/>
    </vehicle>
    <vehicle id="64" depart="44.80">
        <route edges="9:8 8:0 0:1 1:2 2:3"/>
    </vehicle>
    <vehicle id="65" depart="45.50">
        <route edges="6:4 4:0 0:1"/>
    </vehicle>
    <vehicle id="67" depart="46.90">
        <route edges="6:4 4:0 0:1 1:12 12:13"/>
    </vehicle>
    <vehicle id="68" depart="47.60">
        <route edges="15:14 14:2 2:1 1:12 12:13"/>
    </vehicle>
    <vehicle id="70" depart="49.00">
        <route edges="1:0 0:4 4:6"/>
    </vehicle>
    <vehicle id="71" depart="49.70">
        <route edges="4:0 0:1 1:2 2:3 3:5 5:7"/>
    </vehicle>
    <vehicle id="72" depart="50.40">
        <route edges="19:18 18:3 3:2 2:1 1:0 0:10 10:11"/>
    </vehicle>
    <vehicle id="73" depart="51.10">
        <route edges="13:12 12:1 1:2 2:3"/>
    </vehicle>
    <vehicle id="74" depart="51.80">
        <route edges="9:8 8:0"/>
    </vehicle>
    <vehicle id="76" depart="53.20">
        <route edges="19:18 18:3 3:2 2:1 1:0 0:10 10:11"/>
    </vehicle>
    <vehicle id="79" depart="55.30">
        <route edges="11:10 10:0 0:1 1:12"/>
    </vehicle>
    <vehicle id="82" depart="57.40">
        <route edges="19:18 18:3 3:2 2:1 1:0 0:8 8:9"/>
    </vehicle>
    <vehicle id="83" depart="58.10">
        <route edges="11:10 10:0 0:1 1:2 2:3"/>
    </vehicle>
    <vehicle id="84" depart="58.80">
        <route edges="9:8 8:0 0:4 4:6"/>
    </vehicle>
    <vehicle id="85" depart="59.50">
        <route edges="15:14 14:2 2:1 1:0 0:4 4:6"/>
    </vehicle>
    <vehicle id="86" depart="60.20">
        <route edges="13:12 12:1 1:2 2:14 14:15"/>
    </vehicle>
    <vehicle id="87" depart="60.90">
        <route edges="7:5 5:3 3:2 2:1 1:0 0:8 8:9"/>
    </vehicle>
    <vehicle id="91" depart="63.70">
        <route edges="6:4 4:0 0:1 1:2 2:3 3:5"/>
    </vehicle>
    <vehicle id="92" depart="64.40">
        <route edges="3:2 2:14 14:15"/>
    </vehicle>
    <vehicle id="94" depart="65.80">
        <route edges="15:14 14:2"/>
    </vehicle>
    <vehicle id="97" depart="67.90">
        <route edges="12:1"/>
    </vehicle>
    <vehicle id="98" depart="68.60">
        <route edges="9:8 8:0 0:1"/>
    </vehicle>
    <vehicle id="99" depart="69.30">
        <route edges="19:18 18:3 3:2"/>
    </vehicle>
    <vehicle id="100" depart="70.00">
        <route edges="13:12 12:1 1:0 0:4 4:6"/>
    </vehicle>
    <vehicle id="102" depart="71.40">
        <route edges="3:2 2:14 14:15"/>
    </vehicle>
    <vehicle id="104" depart="72.80">
        <route edges="3:2"/>
    </vehicle>
    <vehicle id="105" depart="73.50">
        <route edges="5:3 3:2"/>
    </vehicle>
    <vehicle id="106" depart="74.20">
        <route edges="1:12"/>
    </vehicle>
    <vehicle id="108" depart="75.60">
        <route edges="9:8 8:0 0:1 1:2 2:14"/>
    </vehicle>
    <vehicle id="109" depart="76.30">
        <route edges="4:0 0:10 10:11"/>
    </vehicle>
    <vehicle id="110" depart="77.00">
        <route edges="18:3 3:2 2:1 1:12 12:13"/>
    </vehicle>
    <vehicle id="111" depart="77.70">
        <route edges="2:1 1:0 0:8"/>
    </vehicle>
    <vehicle id="112" depart="78.40">
        <route edges="6:4 4:0 0:1 1:2 2:14 14:15"/>
    </vehicle>
    <vehicle id="113" depart="79.10">
        <route edges="7:5 5:3 3:2 2:1 1:0 0:10"/>
    </vehicle>
    <vehicle id="117" depart="81.90">
        <route edges="7:5 5:3 3:2 2:1 1:12 12:13"/>
    </vehicle>
    <vehicle id="118" depart="82.60">
        <route edges="19:18 18:3 3:2 2:1 1:12 12:13"/>
    </vehicle>
    <vehicle id="119" depart="83.30">
        <route edges="9:8 8:0 0:1 1:2"/>
    </vehicle>
    <vehicle id="120" depart="84.00">
        <route edges="3:2 2:1 1:0 0:4 4:6"/>
    </vehicle>
    <vehicle id="122" depart="85.40">
        <route edges="6:4 4:0 0:1 1:2 2:3 3:5 5:7"/>
    </vehicle>
    <vehicle id="124" depart="86.80">
        <route edges="17:16 16:3 3:2 2:1 1:0 0:4 4:6"/>
    </vehicle>
    <vehicle id="125" depart="87.50">
        <route edges="17:16 16:3 3:18 18:19"/>
    </vehicle>
    <vehicle id="131" depart="91.70">
        <route edges="9:8 8:0 0:1 1:2 2:14 14:15"/>
    </vehicle>
    <vehicle id="133" depart="93.10">
        <route edges="14:2 2:1 1:0 0:4 4:6"/>
    </vehicle>
    <vehicle id="134" depart="93.80">
        <route edges="19:18 18:3 3:5 5:7"/>
    </vehicle>
    <vehicle id="135" depart="94.50">
        <route edges="5:3 3:2 2:1 1:0"/>
    </vehicle>
    <vehicle id="137" depart="95.90">
        <route edges="11:10 10:0 0:1 1:2 2:3 3:5 5:7"/>
    </vehicle>
    <vehicle id="138" depart="96.60">
        <route edges="7:5 5:3 3:16 16:17"/>
    </vehicle>
    <vehicle id="140" depart="98.00">
        <route edges="19:18 18:3 3:2 2:1 1:0 0:10 10:11"/>
    </vehicle>
    <vehicle id="142" depart="99.40">
        <route edges="15:14 14:2 2:1 1:0 0:8 8:9"/>
    </vehicle>
    <vehicle id="144" depart="100.80">
        <route edges="1:2 2:3 3:16"/>
    </vehicle>
    <vehicle id="145" depart="101.50">
        <route edges="7:5 5:3 3:2"/>
    </vehicle>
    <vehicle id="148" depart="103.60">
        <route edges="19:18 18:3 3:5"/>
    </vehicle>
    <vehicle id="152" depart="106.40">
        <route edges="6:4 4:0 0:10 10:11"/>
    </vehicle>
    <vehicle id="155" depart="108.50">
        <route edges="2:3 3:5 5:7"/>
    </vehicle>
    <vehicle id="159" depart="111.30">
        <route edges="19:18 18:3 3:2 2:14 14:15"/>
    </vehicle>
    <vehicle id="161" depart="112.70">
        <route edges="7:5 5:3 3:2 2:1 1:12 12:13"/>
    </vehicle>
    <vehicle id="163" depart="114.10">
        <route edges="4:0 0:1 1:2 2:3"/>
    </vehicle>
    <vehicle id="165" depart="115.50">
        <route edges="18:3 3:2 2:1 1:0 0:8 8:9"/>
    </vehicle>
    <vehicle id="166" depart="116.20">
        <route edges="7:5 5:3 3:2 2:1 1:12 12:13"/>
    </vehicle>
    <vehicle id="170" depart="119.00">
        <route edges="1:2 2:14 14:15"/>
    </vehicle>
    <vehicle id="172" depart="120.40">
        <route edges="7:5 5:3 3:2 2:1 1:0 0:4 4:6"/>
    </vehicle>
    <vehicle id="173" depart="121.10">
        <route edges="13:12 12:1 1:0 0:4"/>
    </vehicle>
    <vehicle id="174" depart="121.80">
        <route edges="2:3"/>
    </vehicle>
    <vehicle id="175" depart="122.50">
        <route edges="6:4 4:0 0:1 1:2 2:3 3:16 16:17"/>
    </vehicle>
    <vehicle id="176" depart="123.20">
        <route edges="9:8 8:0 0:10 10:11"/>
    </vehicle>
    <vehicle id="177" depart="123.90">
        <route edges="14:2 2:3 3:18 18:19"/>
    </vehicle>
    <vehicle id="179" depart="125.30">
        <route edges="17:16 16:3 3:5 5:7"/>
    </vehicle>
    <vehicle id="182" depart="127.40">
        <route edges="11:10 10:0 0:4 4:6"/>
    </vehicle>
    <vehicle id="183" depart="128.10">
        <route edges="4:0 0:1 1:2 2:3 3:5 5:7"/>
    </vehicle>
    <vehicle id="184" depart="128.80">
        <route edges="2:1 1:12 12:13"/>
    </vehicle>
    <vehicle id="187" depart="130.90">
        <route edges="7:5 5:3 3:2"/>
    </vehicle>
    <vehicle id="188" depart="131.60">
        <route edges="7:5 5:3"/>
    </vehicle>
    <vehicle id="190" depart="133.00">
        <route edges="17:16 16:3 3:2 2:14 14:15"/>
    </vehicle>
    <vehicle id="191" depart="133.70">
        <route edges="2:3 3:16"/>
    </vehicle>
    <vehicle id="192" depart="134.40">
        <route edges="7:5 5:3 3:16"/>
    </vehicle>
    <vehicle id="193" depart="135.10">
        <route edges="11:10 10:0 0:1 1:2 2:3 3:16 16:17"/>
    </vehicle>
    <vehicle id="195" depart="136.50">
        <route edges="15:14 14:2 2:1 1:0 0:10"/>
    </vehicle>
    <vehicle id="196" depart="137.20">
        <route edges="14:2 2:3"/>
    </vehicle>
    <vehicle id="199" depart="139.30">
        <route edges="19:18 18:3 3:2 2:1 1:0 0:4 4:6"/>
    </vehicle>
    <vehicle id="202" depart="141.40">
        <route edges="4:0 0:1 1:2 2:3 3:5 5:7"/>
    </vehicle>
    <vehicle id="204" depart="142.80">
        <route edges="1:2 2:14"/>
    </vehicle>
    <vehicle id="206" depart="144.20">
        <route edges="5:3 3:2 2:1 1:0 0:4 4:6"/>
    </vehicle>
    <vehicle id="207" depart="144.90">
        <route edges="6:4 4:0 0:1 1:2 2:3"/>
    </vehicle>
    <vehicle id="208" depart="145.60">
        <route edges="6:4 4:0 0:1 1:2 2:3 3:18 18:19"/>
    </vehicle>
    <vehicle id="209" depart="146.30">
        <route edges="6:4 4:0 0:1 1:2 2:3 3:18 18:19"/>
    </vehicle>
    <vehicle id="210" depart="147.00">
        <route edges="3:5 5:7"/>
    </vehicle>
    <vehicle id="212" depart="148.40">
        <route edges="11:10 10:0 0:1 1:2 2:3 3:16 16:17"/>
    </vehicle>
    <vehicle id="213" depart="149.10">
        <route edges="7:5 5:3 3:16 16:17"/>
    </vehicle>
    <vehicle id="214" depart="149.80">
        <route edges="11:10 10:0 0:4 4:6"/>
    </vehicle>
    <vehicle id="215" depart="150.50">
        <route edges="3:2 2:1 1:0 0:4 4:6"/>
    </vehicle>
    <vehicle id="218" depart="152.60">
        <route edges="1:2 2:3 3:5 5:7"/>
    </vehicle>
    <vehicle id="220" depart="154.00">
        <route edges="0:4 4:6"/>
    </vehicle>
    <vehicle id="221" depart="154.70">
        <route edges="15:14 14:2 2:1 1:0 0:4 4:6"/>
    </vehicle>
    <vehicle id="222" depart="155.40">
        <route edges="13:12 12:1 1:2 2:14 14:15"/>
    </vehicle>
    <vehicle id="223" depart="156.10">
        <route edges="2:1 1:0 0:10 10:11"/>
    </vehicle>
    <vehicle id="224" depart="156.80">
        <route edges="1:0"/>
    </vehicle>
    <vehicle id="225" depart="157.50">
        <route edges="13:12 12:1 1:0 0:4 4:6"/>
    </vehicle>
    <vehicle id="226" depart="158.20">
        <route edges="2:3 3:16 16:17"/>
    </vehicle>
    <vehicle id="227" depart="158.90">
        <route edges="15:14 14:2 2:1 1:0 0:10 10:11"/>
    </vehicle>
    <vehicle id="228" depart="159.60">
        <route edges="18:3 3:2 2:1 1:0"/>
    </vehicle>
    <vehicle id="230" depart="161.00">
        <route edges="9:8 8:0 0:4 4:6"/>
    </vehicle>
    <vehicle id="231" depart="161.70">
        <route edges="13:12 12:1 1:2 2:14"/>
    </vehicle>
    <vehicle id="232" depart="162.40">
        <route edges="15:14 14:2 2:3 3:16 16:17"/>
    </vehicle>
    <vehicle id="237" depart="165.90">
        <route edges="19:18 18:3 3:5"/>
    </vehicle>
    <vehicle id="239" depart="167.30">
        <route edges="7:5 5:3 3:2 2:1 1:0 0:4 4:6"/>
    </vehicle>
    <vehicle id="240" depart="168.00">
        <route edges="1:0 0:4"/>
    </vehicle>
    <vehicle id="242" depart="169.40">
        <route edges="15:14 14:2 2:3 3:5 5:7"/>
    </vehicle>
    <vehicle id="243" depart="170.10">
        <route edges="17:16 16:3 3:5"/>
    </vehicle>
    <vehicle id="244" depart="170.80">
        <route edges="7:5 5:3 3:2 2:1 1:0 0:8 8:9"/>
    </vehicle>
    <vehicle id="245" depart="171.50">
        <route edges="19:18 18:3 3:5 5:7"/>
    </vehicle>
    <vehicle id="246" depart="172.20">
        <route edges="7:5 5:3 3:18 18:19"/>
    </vehicle>
    <vehicle id="252" depart="176.40">
        <route edges="6:4 4:0"/>
    </vehicle>
    <vehicle id="253" depart="177.10">
        <route edges="19:18 18:3 3:16"/>
    </vehicle>
    <vehicle id="254" depart="177.80">
        <route edges="15:14 14:2 2:3 3:16 16:17"/>
    </vehicle>
    <vehicle id="257" depart="179.90">
        <route edges="2:1 1:0 0:4 4:6"/>
    </vehicle>
    <vehicle id="259" depart="181.30">
        <route edges="9:8 8:0 0:1 1:2 2:14 14:15"/>
    </vehicle>
    <vehicle id="261" depart="182.70">
        <route edges="7:5 5:3 3:2 2:14 14:15"/>
    </vehicle>
    <vehicle id="262" depart="183.40">
        <route edges="3:2 2:1 1:0 0:4 4:6"/>
    </vehicle>
    <vehicle id="263" depart="184.10">
        <route edges="17:16 16:3 3:2 2:1 1:0 0:8 8:9"/>
    </vehicle>
    <vehicle id="264" depart="184.80">
        <route edges="7:5 5:3 3:18 18:19"/>
    </vehicle>
    <vehicle id="265" depart="185.50">
        <route edges="9:8 8:0 0:1 1:2 2:3 3:16 16:17"/>
    </vehicle>
    <vehicle id="271" depart="189.70">
        <route edges="7:5 5:3 3:2 2:1 1:12 12:13"/>
    </vehicle>
    <vehicle id="272" depart="190.40">
        <route edges="19:18 18:3 3:2 2:1 1:0 0:8"/>
    </vehicle>
    <vehicle id="274" depart="191.80">
        <route edges="17:16 16:3 3:2 2:1 1:0 0:4 4:6"/>
    </vehicle>
    <vehicle id="275" depart="192.50">
        <route edges="19:18 18:3 3:2 2:14"/>
    </vehicle>
    <vehicle id="277" depart="193.90">
        <route edges="19:18 18:3 3:2 2:1 1:0 0:8 8:9"/>
    </vehicle>
    <vehicle id="278" depart="194.60">
        <route edges="16:3 3:2"/>
    </vehicle>
    <vehicle id="279" depart="195.30">
        <route edges="10:0 0:4 4:6"/>
    </vehicle>
    <vehicle id="280" depart="196.00">
        <route edges="12:1 1:2 2:3 3:5"/>
    </vehicle>
    <vehicle id="281" depart="196.70">
        <route edges="13:12 12:1 1:2 2:3 3:16 16:17"/>
    </vehicle>
    <vehicle id="284" depart="198.80">
        <route edges="1:2 2:3 3:18 18:19"/>
    </vehicle>
    <vehicle id="288" depart="201.60">
        <route edges="0:1 1:12 12:13"/>
    </vehicle>
    <vehicle id="294" depart="205.80">
        <route edges="9:8 8:0 0:1 1:2 2:3 3:5"/>
    </vehicle>
    <vehicle id="298" depart="208.60">
        <route edges="12:1 1:2 2:3 3:5"/>
    </vehicle>
    <vehicle id="300" depart="210.00">
        <route edges="3:2 2:1 1:0 0:4 4:6"/>
    </vehicle>
    <vehicle id="302" depart="211.40">
        <route edges="17:16 16:3 3:5 5:7"/>
    </vehicle>
    <vehicle id="303" depart="212.10">
        <route edges="13:12 12:1"/>
    </vehicle>
    <vehicle id="304" depart="212.80">
        <route edges="17:16 16:3 3:2 2:14 14:15"/>
    </vehicle>
    <vehicle id="305" depart="213.50">
        <route edges="0:1 1:2 2:3 3:5 5:7"/>
    </vehicle>
    <vehicle id="306" depart="214.20">
        <route edges="3:2 2:14"/>
    </vehicle>
    <vehicle id="307" depart="214.90">
        <route edges="7:5 5:3 3:2 2:1"/>
    </vehicle>
    <vehicle id="308" depart="215.60">
        <route edges="3:2 2:1 1:0 0:8 8:9"/>
    </vehicle>
    <vehicle id="309" depart="216.30">
        <route edges="8:0 0:1 1:2 2:3 3:18"/>
    </vehicle>
    <vehicle id="311" depart="217.70">
        <route edges="8:0 0:1 1:2 2:3 3:5"/>
    </vehicle>
    <vehicle id="313" depart="219.10">
        <route edges="17:16 16:3 3:2 2:1 1:0 0:4"/>
    </vehicle>
    <vehicle id="314" depart="219.80">
        <route edges="11:10 10:0 0:1 1:2 2:3 3:5 5:7"/>
    </vehicle>
    <vehicle id="315" depart="220.50">
        <route edges="17:16 16:3 3:2 2:1 1:0 0:4"/>
    </vehicle>
    <vehicle id="320" depart="224.00">
        <route edges="9:8 8:0"/>
    </vehicle>
    <vehicle id="323" depart="226.10">
        <route edges="0:1 1:2 2:14 14:15"/>
    </vehicle>
    <vehicle id="324" depart="226.80">
        <route edges="12:1 1:2 2:3 3:18 18:19"/>
    </vehicle>
    <vehicle id="328" depart="229.60">
        <route edges="9:8 8:0 0:10 10:11"/>
    </vehicle>
    <vehicle id="329" depart="230.30">
        <route edges="9:8 8:0 0:4 4:6"/>
    </vehicle>
    <vehicle id="331" depart="231.70">
        <route edges="2:3 3:5 5:7"/>
    </vehicle>
    <vehicle id="332" depart="232.40">
        <route edges="2:3 3:5 5:7"/>
    </vehicle>
    <vehicle id="333" depart="233.10">
        <route edges="15:14 14:2 2:3 3:5 5:7"/>
    </vehicle>
    <vehicle id="335" depart="234.50">
        <route edges="19:18 18:3 3:2 2:1 1:0 0:4"/>
    </vehicle>
    <vehicle id="336" depart="235.20">
        <route edges="13:12 12:1 1:2 2:3 3:5 5:7"/>
    </vehicle>
    <vehicle id="337" depart="235.90">
        <route edges="11:10 10:0 0:4 4:6"/>
    </vehicle>
    <vehicle id="339" depart="237.30">
        <route edges="2:3"/>
    </vehicle>
    <vehicle id="340" depart="238.00">
        <route edges="9:8 8:0 0:1 1:12 12:13"/>
    </vehicle>
    <vehicle id="341" depart="238.70">
        <route edges="5:3"/>
    </vehicle>
    <vehicle id="342" depart="239.40">
        <route edges="2:3 3:5 5:7"/>
    </vehicle>
    <vehicle id="343" depart="240.10">
        <route edges="19:18 18:3 3:16 16:17"/>
    </vehicle>
    <vehicle id="344" depart="240.80">
        <route edges="7:5 5:3 3:2 2:1"/>
    </vehicle>
    <vehicle id="346" depart="242.20">
        <route edges="16:3 3:2 2:1 1:0 0:4"/>
    </vehicle>
    <vehicle id="347" depart="242.90">
        <route edges="9:8 8:0 0:1 1:2 2:3 3:18 18:19"/>
    </vehicle>
    <vehicle id="348" depart="243.60">
        <route edges="5:3 3:2 2:1 1:0 0:4 4:6"/>
    </vehicle>
    <vehicle id="349" depart="244.30">
        <route edges="17:16 16:3 3:2 2:1 1:12 12:13"/>
    </vehicle>
    <vehicle id="355" depart="248.50">
        <route edges="19:18 18:3 3:2 2:1 1:0 0:10 10:11"/>
    </vehicle>
    <vehicle id="356" depart="249.20">
        <route edges="2:3 3:5 5:7"/>
    </vehicle>
    <vehicle id="359" depart="251.30">
        <route edges="11:10 10:0 0:8 8:9"/>
    </vehicle>
    <vehicle id="360" depart="252.00">
        <route edges="11:10 10:0 0:4"/>
    </vehicle>
    <vehicle id="363" depart="254.10">
        <route edges="6:4 4:0 0:10"/>
    </vehicle>
    <vehicle id="365" depart="255.50">
        <route edges="13:12 12:1 1:2 2:14"/>
    </vehicle>
    <vehicle id="366" depart="256.20">
        <route edges="0:1 1:2 2:3 3:16 16:17"/>
    </vehicle>
    <vehicle id="368" depart="257.60">
        <route edges="0:8 8:9"/>
    </vehicle>
    <vehicle id="370" depart="259.00">
        <route edges="14:2 2:1 1:12 12:13"/>
    </vehicle>
    <vehicle id="371" depart="259.70">
        <route edges="2:3 3:5 5:7"/>
    </vehicle>
    <vehicle id="374" depart="261.80">
        <route edges="7:5 5:3 3:2 2:1 1:12 12:13"/>
    </vehicle>
    <vehicle id="375" depart="262.50">
        <route edges="8:0 0:1 1:2 2:3 3:5 5:7"/>
    </vehicle>
    <vehicle id="377" depart="263.90">
        <route edges="10:0 0:1 1:12 12:13"/>
    </vehicle>
    <vehicle id="380" depart="266.00">
        <route edges="4:0 0:1 1:12 12:13"/>
    </vehicle>
    <vehicle id="383" depart="268.10">
        <route edges="19:18 18:3 3:5 5:7"/>
    </vehicle>
    <vehicle id="384" depart="268.80">
        <route edges="13:12 12:1 1:0 0:4 4:6"/>
    </vehicle>
    <vehicle id="386" depart="270.20">
        <route edges="15:14 14:2 2:3 3:5 5:7"/>
    </vehicle>
    <vehicle id="387" depart="270.90">
        <route edges="18:3 3:2 2:1 1:0 0:4"/>
    </vehicle>
    <vehicle id="388" depart="271.60">
        <route edges="6:4 4:0 0:1 1:2"/>
    </vehicle>
    <vehicle id="389" depart="272.30">
        <route edges="9:8 8:0 0:1 1:2 2:3 3:16 16:17"/>
    </vehicle>
    <vehicle id="391" depart="273.70">
        <route edges="9:8 8:0 0:1 1:2 2:14 14:15"/>
    </vehicle>
    <vehicle id="392" depart="274.40">
        <route edges="3:5 5:7"/>
    </vehicle>
    <vehicle id="394" depart="275.80">
        <route edges="9:8 8:0 0:1 1:2 2:3 3:18 18:19"/>
    </vehicle>
    <vehicle id="396" depart="277.20">
        <route edges="3:2 2:1 1:0 0:10 10:11"/>
    </vehicle>
    <vehicle id="398" depart="278.60">
        <route edges="11:10 10:0 0:1 1:2 2:3 3:5 5:7"/>
    </vehicle>
    <vehicle id="401" depart="280.70">
        <route edges="12:1 1:0 0:4 4:6"/>
    </vehicle>
    <vehicle id="403" depart="282.10">
        <route edges="5:3 3:18 18:19"/>
    </vehicle>
    <vehicle id="404" depart="282.80">
        <route edges="7:5 5:3 3:2 2:1 1:0 0:4"/>
    </vehicle>
    <vehicle id="409" depart="286.30">
        <route edges="17:16 16:3 3:2 2:1 1:0 0:4 4:6"/>
    </vehicle>
    <vehicle id="411" depart="287.70">
        <route edges="19:18 18:3 3:2 2:1 1:12"/>
    </vehicle>
    <vehicle id="412" depart="288.40">
        <route edges="7:5 5:3"/>
    </vehicle>
    <vehicle id="413" depart="289.10">
        <route edges="3:5 5:7"/>
    </vehicle>
    <vehicle id="414" depart="289.80">
        <route edges="1:2"/>
    </vehicle>
    <vehicle id="415" depart="290.50">
        <route edges="15:14 14:2 2:1 1:0 0:4 4:6"/>
    </vehicle>
    <vehicle id="419" depart="293.30">
        <route edges="6:4 4:0 0:1 1:2 2:3 3:5 5:7"/>
    </vehicle>
    <vehicle id="420" depart="294.00">
        <route edges="6:4 4:0 0:1 1:2 2:3 3:16 16:17"/>
    </vehicle>
    <vehicle id="422" depart="295.40">
        <route edges="7:5 5:3 3:16 16:17"/>
    </vehicle>
    <vehicle id="423" depart="296.10">
        <route edges="1:0 0:4"/>
    </vehicle>
    <vehicle id="424" depart="296.80">
        <route edges="17:16 16:3 3:18 18:19"/>
    </vehicle>
    <vehicle id="425" depart="297.50">
        <route edges="7:5 5:3 3:2"/>
    </vehicle>
    <vehicle id="427" depart="298.90">
        <route edges="2:3 3:16 16:17"/>
    </vehicle>
    <vehicle id="430" depart="301.00">
        <route edges="6:4 4:0 0:1 1:12 12:13"/>
    </vehicle>
    <vehicle id="431" depart="301.70">
        <route edges="7:5 5:3 3:2 2:1 1:0 0:4 4:6"/>
    </vehicle>
    <vehicle id="432" depart="302.40">
        <route edges="15:14 14:2 2:1"/>
    </vehicle>
    <vehicle id="434" depart="303.80">
        <route edges="7:5 5:3 3:2 2:14"/>
    </vehicle>
    <vehicle id="436" depart="305.20">
        <route edges="11:10 10:0 0:1 1:12 12:13"/>
    </vehicle>
    <vehicle id="437" depart="305.90">
        <route edges="13:12 12:1 1:2 2:3 3:16 16:17"/>
    </vehicle>
    <vehicle id="439" depart="307.30">
        <route edges="3:5 5:7"/>
    </vehicle>
    <vehicle id="441" depart="308.70">
        <route edges="14:2 2:3 3:16 16:17"/>
    </vehicle>
    <vehicle id="442" depart="309.40">
        <route edges="1:2 2:3 3:5 5:7"/>
    </vehicle>
    <vehicle id="443" depart="310.10">
        <route edges="10:0 0:4 4:6"/>
    </vehicle>
    <vehicle id="446" depart="312.20">
        <route edges="15:14 14:2 2:1 1:0 0:4 4:6"/>
    </vehicle>
    <vehicle id="447" depart="312.90">
        <route edges="7:5 5:3 3:2 2:1 1:0 0:10"/>
    </vehicle>
    <vehicle id="448" depart="313.60">
        <route edges="11:10 10:0 0:1 1:12"/>
    </vehicle>
    <vehicle id="452" depart="316.40">
        <route edges="15:14 14:2 2:1 1:0 0:8 8:9"/>
    </vehicle>
    <vehicle id="454" depart="317.80">
        <route edges="9:8 8:0 0:4"/>
    </vehicle>
    <vehicle id="456" depart="319.20">
        <route edges="7:5 5:3 3:2 2:1 1:0"/>
    </vehicle>
    <vehicle id="457" depart="319.90">
        <route edges="6:4 4:0 0:1 1:2 2:3 3:18 18:19"/>
    </vehicle>
    <vehicle id="461" depart="322.70">
        <route edges="7:5 5:3 3:16 16:17"/>
    </vehicle>
    <vehicle id="463" depart="324.10">
        <route edges="6:4 4:0 0:1 1:2 2:3 3:5"/>
    </vehicle>
    <vehicle id="465" depart="325.50">
        <route edges="17:16 16:3 3:2 2:1 1:0 0:4 4:6"/>
    </vehicle>
    <vehicle id="467" depart="326.90">
        <route edges="15:14 14:2 2:1 1:12"/>
    </vehicle>
    <vehicle id="472" depart="330.40">
        <route edges="7:5 5:3 3:2 2:14"/>
    </vehicle>
    <vehicle id="475" depart="332.50">
        <route edges="7:5 5:3 3:2 2:1 1:0 0:4 4:6"/>
    </vehicle>
    <vehicle id="476" depart="333.20">
        <route edges="3:2 2:1 1:0 0:8 8:9"/>
    </vehicle>
    <vehicle id="477" depart="333.90">
        <route edges="16:3"/>
    </vehicle>
    <vehicle id="478" depart="334.60">
        <route edges="18:3 3:2 2:1 1:0 0:4 4:6"/>
    </vehicle>
    <vehicle id="480" depart="336.00">
        <route edges="17:16 16:3 3:2 2:1 1:0 0:8 8:9"/>
    </vehicle>
    <vehicle id="481" depart="336.70">
        <route edges="15:14 14:2 2:1"/>
    </vehicle>
    <vehicle id="482" depart="337.40">
        <route edges="6:4 4:0 0:1 1:2 2:3 3:18 18:19"/>
    </vehicle>
    <vehicle id="483" depart="338.10">
        <route edges="19:18 18:3 3:2 2:1 1:0 0:4"/>
    </vehicle>
    <vehicle id="484" depart="338.80">
        <route edges="6:4 4:0 0:1 1:2 2:3 3:16 16:17"/>
    </vehicle>
    <vehicle id="485" depart="339.50">
        <route edges="17:16 16:3 3:2 2:1"/>
    </vehicle>
    <vehicle id="488" depart="341.60">
        <route edges="16:3 3:2 2:1 1:0 0:8"/>
    </vehicle>
    <vehicle id="490" depart="343.00">
        <route edges="15:14 14:2 2:1 1:0 0:4 4:6"/>
    </vehicle>
    <vehicle id="492" depart="344.40">
        <route edges="0:1 1:2 2:3 3:5"/>
    </vehicle>
    <vehicle id="497" depart="347.90">
        <route edges="6:4 4:0 0:1 1:12"/>
    </vehicle>
    <vehicle id="499" depart="349.30">
        <route edges="5:3 3:2 2:1 1:0 0:4 4:6"/>
    </vehicle>
    <vehicle id="501" depart="350.70">
        <route edges="15:14 14:2 2:1 1:0 0:10"/>
    </vehicle>
    <vehicle id="502" depart="351.40">
        <route edges="19:18 18:3 3:5 5:7"/>
    </vehicle>
    <vehicle id="505" depart="353.50">
        <route edges="6:4 4:0 0:1 1:2 2:3 3:5 5:7"/>
    </vehicle>
    <vehicle id="506" depart="354.20">
        <route edges="6:4 4:0 0:1 1:12 12:13"/>
    </vehicle>
    <vehicle id="507" depart="354.90">
        <route edges="17:16 16:3 3:18 18:19"/>
    </vehicle>
    <vehicle id="508" depart="355.60">
        <route edges="13:12 12:1 1:0 0:4 4:6"/>
    </vehicle>
    <vehicle id="509" depart="356.30">
        <route edges="1:12 12:13"/>
    </vehicle>
    <vehicle id="512" depart="358.40">
        <route edges="6:4 4:0 0:1 1:2 2:3 3:5 5:7"/>
    </vehicle>
    <vehicle id="513" depart="359.10">
        <route edges="15:14 14:2 2:1"/>