<?xml version="1.0" encoding="UTF-8"?>

<!-- generated on Thu Oct 23 22:34:40 2014 by SUMO duarouter Version 0.18.0
<?xml version="1.0" encoding="UTF-8"?>

<configuration xmlns:xsi="http://www.w3.org/2001/XMLSchema-instance" xsi:noNamespaceSchemaLocation="http://sumo.sf.net/xsd/duarouterConfiguration.xsd">

    <input>
        <net-file value="corridor.net.xml"/>
        <trip-files value="experimentos/corridor.p0.7.8.trips.xml"/>
    </input>

    <output>
        <output-file value="experimentos/corridor.p0.7.8.rou.xml"/>
    </output>

    <processing>
        <ignore-errors value="true"/>
    </processing>

    <random_number>
        <random value="true"/>
    </random_number>

</configuration>
-->

<routes xmlns:xsi="http://www.w3.org/2001/XMLSchema-instance" xsi:noNamespaceSchemaLocation="http://sumo.sf.net/xsd/routes_file.xsd">
    <vehicle id="0" depart="0.00">
        <route edges="13:12 12:1 1:2 2:3 3:5 5:7"/>
    </vehicle>
    <vehicle id="2" depart="1.40">
        <route edges="3:2 2:1 1:0 0:4 4:6"/>
    </vehicle>
    <vehicle id="3" depart="2.10">
        <route edges="14:2 2:3 3:18 18:19"/>
    </vehicle>
    <vehicle id="5" depart="3.50">
        <route edges="17:16 16:3 3:2 2:1 1:12 12:13"/>
    </vehicle>
    <vehicle id="6" depart="4.20">
        <route edges="3:16 16:17"/>
    </vehicle>
    <vehicle id="8" depart="5.60">
        <route edges="7:5 5:3 3:2 2:1 1:12 12:13"/>
    </vehicle>
    <vehicle id="9" depart="6.30">
        <route edges="5:3 3:2 2:1 1:0 0:4 4:6"/>
    </vehicle>
    <vehicle id="11" depart="7.70">
        <route edges="6:4 4:0 0:1 1:2 2:3 3:5 5:7"/>
    </vehicle>
    <vehicle id="12" depart="8.40">
        <route edges="7:5 5:3 3:2 2:1 1:0 0:10 10:11"/>
    </vehicle>
    <vehicle id="13" depart="9.10">
        <route edges="11:10 10:0 0:1 1:2 2:3 3:18 18:19"/>
    </vehicle>
    <vehicle id="14" depart="9.80">
        <route edges="4:0 0:1 1:12 12:13"/>
    </vehicle>
    <vehicle id="16" depart="11.20">
        <route edges="11:10 10:0 0:1 1:2 2:3"/>
    </vehicle>
    <vehicle id="17" depart="11.90">
        <route edges="11:10 10:0 0:8 8:9"/>
    </vehicle>
    <vehicle id="18" depart="12.60">
        <route edges="17:16 16:3 3:2 2:1 1:12 12:13"/>
    </vehicle>
    <vehicle id="19" depart="13.30">
        <route edges="6:4 4:0 0:8 8:9"/>
    </vehicle>
    <vehicle id="20" depart="14.00">
        <route edges="19:18 18:3 3:2 2:14 14:15"/>
    </vehicle>
    <vehicle id="21" depart="14.70">
        <route edges="19:18 18:3 3:16"/>
    </vehicle>
    <vehicle id="23" depart="16.10">
        <route edges="7:5 5:3 3:2 2:1 1:0 0:10"/>
    </vehicle>
    <vehicle id="25" depart="17.50">
        <route edges="6:4 4:0 0:1 1:2 2:3 3:18 18:19"/>
    </vehicle>
    <vehicle id="26" depart="18.20">
        <route edges="17:16 16:3 3:2 2:1 1:0 0:4 4:6"/>
    </vehicle>
    <vehicle id="27" depart="18.90">
        <route edges="9:8 8:0 0:1 1:12 12:13"/>
    </vehicle>
    <vehicle id="28" depart="19.60">
        <route edges="11:10 10:0 0:1 1:2 2:3 3:18 18:19"/>
    </vehicle>
    <vehicle id="30" depart="21.00">
        <route edges="6:4 4:0 0:1 1:2 2:3 3:18 18:19"/>
    </vehicle>
    <vehicle id="31" depart="21.70">
        <route edges="6:4 4:0 0:1 1:2 2:14"/>
    </vehicle>
    <vehicle id="32" depart="22.40">
        <route edges="6:4 4:0 0:10 10:11"/>
    </vehicle>
    <vehicle id="33" depart="23.10">
        <route edges="7:5 5:3"/>
    </vehicle>
    <vehicle id="35" depart="24.50">
        <route edges="2:3 3:18 18:19"/>
    </vehicle>
    <vehicle id="36" depart="25.20">
        <route edges="18:3 3:2 2:1 1:0 0:10 10:11"/>
    </vehicle>
    <vehicle id="38" depart="26.60">
        <route edges="2:1 1:12 12:13"/>
    </vehicle>
    <vehicle id="41" depart="28.70">
        <route edges="11:10 10:0 0:1 1:2 2:3 3:18 18:19"/>
    </vehicle>
    <vehicle id="43" depart="30.10">
        <route edges="15:14 14:2 2:1 1:0 0:8"/>
    </vehicle>
    <vehicle id="44" depart="30.80">
        <route edges="17:16 16:3 3:2 2:1 1:12 12:13"/>
    </vehicle>
    <vehicle id="45" depart="31.50">
        <route edges="6:4 4:0 0:1 1:2 2:3 3:5 5:7"/>
    </vehicle>
    <vehicle id="46" depart="32.20">
        <route edges="19:18 18:3 3:2 2:1 1:0"/>
    </vehicle>
    <vehicle id="47" depart="32.90">
        <route edges="9:8 8:0 0:10 10:11"/>
    </vehicle>
    <vehicle id="49" depart="34.30">
        <route edges="3:5"/>
    </vehicle>
    <vehicle id="52" depart="36.40">
        <route edges="13:12 12:1 1:2 2:14 14:15"/>
    </vehicle>
    <vehicle id="54" depart="37.80">
        <route edges="9:8 8:0 0:1 1:2 2:14"/>
    </vehicle>
    <vehicle id="56" depart="39.20">
        <route edges="3:2 2:1 1:0 0:4 4:6"/>
    </vehicle>
    <vehicle id="59" depart="41.30">
        <route edges="13:12 12:1 1:0 0:4 4:6"/>
    </vehicle>
    <vehicle id="60" depart="42.00">
        <route edges="6:4 4:0 0:1 1:2 2:3 3:5 5:7"/>
    </vehicle>
    <vehicle id="63" depart="44.10">
        <route edges="5:3 3:16"/>
    </vehicle>
    <vehicle id="64" depart="44.80">
        <route edges="17:16 16:3 3:5 5:7"/>
    </vehicle>
    <vehicle id="66" depart="46.20">
        <route edges="9:8 8:0 0:10 10:11"/>
    </vehicle>
    <vehicle id="70" depart="49.00">
        <route edges="11:10 10:0 0:1 1:2 2:14"/>
    </vehicle>
    <vehicle id="71" depart="49.70">
        <route edges="6:4 4:0"/>
    </vehicle>
    <vehicle id="75" depart="52.50">
        <route edges="6:4 4:0"/>
    </vehicle>
    <vehicle id="76" depart="53.20">
        <route edges="10:0 0:4 4:6"/>
    </vehicle>
    <vehicle id="77" depart="53.90">
        <route edges="7:5 5:3 3:18 18:19"/>
    </vehicle>
    <vehicle id="79" depart="55.30">
        <route edges="7:5 5:3 3:2 2:1 1:0 0:4 4:6"/>
    </vehicle>
    <vehicle id="80" depart="56.00">
        <route edges="4:0 0:1 1:12"/>
    </vehicle>
    <vehicle id="81" depart="56.70">
        <route edges="13:12 12:1 1:0 0:8 8:9"/>
    </vehicle>
    <vehicle id="84" depart="58.80">
        <route edges="6:4 4:0 0:1 1:2 2:3 3:5"/>
    </vehicle>
    <vehicle id="87" depart="60.90">
        <route edges="17:16 16:3 3:2 2:1 1:12 12:13"/>
    </vehicle>
    <vehicle id="89" depart="62.30">
        <route edges="0:1 1:2 2:3 3:5"/>
    </vehicle>
    <vehicle id="91" depart="63.70">
        <route edges="6:4 4:0 0:10"/>
    </vehicle>
    <vehicle id="92" depart="64.40">
        <route edges="19:18 18:3 3:5 5:7"/>
    </vehicle>
    <vehicle id="94" depart="65.80">
        <route edges="11:10 10:0 0:1 1:2 2:3 3:5 5:7"/>
    </vehicle>
    <vehicle id="99" depart="69.30">
        <route edges="15:14 14:2 2:1 1:0"/>
    </vehicle>
    <vehicle id="100" depart="70.00">
        <route edges="17:16 16:3 3:2 2:1 1:0 0:8"/>
    </vehicle>
    <vehicle id="106" depart="74.20">
        <route edges="19:18 18:3 3:2 2:1 1:0 0:8"/>
    </vehicle>
    <vehicle id="107" depart="74.90">
        <route edges="17:16 16:3 3:2 2:1 1:0 0:8"/>
    </vehicle>
    <vehicle id="108" depart="75.60">
        <route edges="3:2 2:1 1:0 0:10 10:11"/>
    </vehicle>
    <vehicle id="109" depart="76.30">
        <route edges="7:5 5:3 3:2 2:1"/>
    </vehicle>
    <vehicle id="110" depart="77.00">
        <route edges="13:12 12:1"/>
    </vehicle>
    <vehicle id="111" depart="77.70">
        <route edges="2:3 3:18 18:19"/>
    </vehicle>
    <vehicle id="112" depart="78.40">
        <route edges="6:4 4:0 0:1 1:2 2:3"/>
    </vehicle>
    <vehicle id="115" depart="80.50">
        <route edges="17:16 16:3 3:18 18:19"/>
    </vehicle>
    <vehicle id="117" depart="81.90">
        <route edges="17:16 16:3 3:2 2:1 1:0 0:8 8:9"/>
    </vehicle>
    <vehicle id="118" depart="82.60">
        <route edges="9:8 8:0 0:1 1:2 2:3 3:18 18:19"/>
    </vehicle>
    <vehicle id="121" depart="84.70">
        <route edges="3:2 2:1 1:0 0:8 8:9"/>
    </vehicle>
    <vehicle id="122" depart="85.40">
        <route edges="2:3 3:5 5:7"/>
    </vehicle>
    <vehicle id="123" depart="86.10">
        <route edges="6:4 4:0 0:1 1:2 2:14 14:15"/>
    </vehicle>
    <vehicle id="124" depart="86.80">
        <route edges="11:10 10:0 0:1 1:2 2:3 3:16 16:17"/>
    </vehicle>
    <vehicle id="129" depart="90.30">
        <route edges="11:10 10:0 0:1 1:2 2:3 3:16 16:17"/>
    </vehicle>
    <vehicle id="135" depart="94.50">
        <route edges="7:5 5:3 3:2 2:1 1:0 0:8 8:9"/>
    </vehicle>
    <vehicle id="138" depart="96.60">
        <route edges="7:5 5:3 3:18 18:19"/>
    </vehicle>
    <vehicle id="140" depart="98.00">
        <route edges="5:3 3:2 2:14 14:15"/>
    </vehicle>
    <vehicle id="142" depart="99.40">
        <route edges="17:16 16:3 3:2 2:1"/>
    </vehicle>
    <vehicle id="143" depart="100.10">
        <route edges="9:8 8:0 0:4 4:6"/>
    </vehicle>
    <vehicle id="144" depart="100.80">
        <route edges="19:18 18:3 3:2 2:1 1:0 0:10 10:11"/>
    </vehicle>
    <vehicle id="146" depart="102.20">
        <route edges="0:4 4:6"/>
    </vehicle>
    <vehicle id="149" depart="104.30">
        <route edges="1:0 0:8 8:9"/>
    </vehicle>
    <vehicle id="150" depart="105.00">
        <route edges="6:4 4:0 0:1 1:2 2:3 3:5 5:7"/>
    </vehicle>
    <vehicle id="151" depart="105.70">
        <route edges="6:4 4:0 0:1 1:12 12:13"/>
    </vehicle>
    <vehicle id="154" depart="107.80">
        <route edges="6:4 4:0 0:1 1:2 2:3 3:5"/>
    </vehicle>
    <vehicle id="158" depart="110.60">
        <route edges="1:2 2:14 14:15"/>
    </vehicle>
    <vehicle id="159" depart="111.30">
        <route edges="12:1 1:2 2:3 3:5 5:7"/>
    </vehicle>
    <vehicle id="161" depart="112.70">
        <route edges="10:0 0:1 1:2 2:3 3:5 5:7"/>
    </vehicle>
    <vehicle id="162" depart="113.40">
        <route edges="19:18 18:3 3:16"/>
    </vehicle>
    <vehicle id="163" depart="114.10">
        <route edges="7:5 5:3 3:2 2:1 1:0 0:4 4:6"/>
    </vehicle>
    <vehicle id="165" depart="115.50">
        <route edges="5:3 3:2 2:1"/>
    </vehicle>
    <vehicle id="167" depart="116.90">
        <route edges="15:14 14:2 2:3"/>
    </vehicle>
    <vehicle id="169" depart="118.30">
        <route edges="3:2 2:1 1:0 0:4 4:6"/>
    </vehicle>
    <vehicle id="171" depart="119.70">
        <route edges="7:5 5:3 3:16 16:17"/>
    </vehicle>
    <vehicle id="172" depart="120.40">
        <route edges="6:4 4:0 0:1 1:2 2:3 3:5"/>
    </vehicle>
    <vehicle id="176" depart="123.20">
        <route edges="1:2 2:3 3:5"/>
    </vehicle>
    <vehicle id="177" depart="123.90">
        <route edges="7:5 5:3"/>
    </vehicle>
    <vehicle id="179" depart="125.30">
        <route edges="6:4 4:0 0:1 1:2 2:3 3:5 5:7"/>
    </vehicle>
    <vehicle id="180" depart="126.00">
        <route edges="19:18 18:3 3:2"/>
    </vehicle>
    <vehicle id="181" depart="126.70">
        <route edges="13:12 12:1 1:0 0:4 4:6"/>
    </vehicle>
    <vehicle id="182" depart="127.40">
        <route edges="17:16 16:3 3:2 2:1 1:0 0:4 4:6"/>
    </vehicle>
    <vehicle id="184" depart="128.80">
        <route edges="7:5 5:3 3:2 2:14 14:15"/>
    </vehicle>
    <vehicle id="185" depart="129.50">
        <route edges="11:10 10:0 0:8 8:9"/>
    </vehicle>
    <vehicle id="188" depart="131.60">
        <route edges="1:0"/>
    </vehicle>
    <vehicle id="190" depart="133.00">
        <route edges="7:5 5:3 3:16 16:17"/>
    </vehicle>
    <vehicle id="191" depart="133.70">
        <route edges="11:10 10:0 0:4 4:6"/>
    </vehicle>
    <vehicle id="193" depart="135.10">
        <route edges="17:16 16:3 3:2 2:1 1:0 0:4 4:6"/>
    </vehicle>
    <vehicle id="197" depart="137.90">
        <route edges="17:16 16:3 3:2 2:1 1:0 0:4 4:6"/>
    </vehicle>
    <vehicle id="198" depart="138.60">
        <route edges="13:12 12:1 1:0 0:4 4:6"/>
    </vehicle>
    <vehicle id="199" depart="139.30">
        <route edges="15:14 14:2 2:1 1:0 0:10"/>
    </vehicle>
    <vehicle id="200" depart="140.00">
        <route edges="13:12 12:1"/>
    </vehicle>
    <vehicle id="201" depart="140.70">
        <route edges="8:0 0:1 1:2 2:3 3:18 18:19"/>
    </vehicle>
    <vehicle id="204" depart="142.80">
        <route edges="9:8 8:0 0:1 1:12"/>
    </vehicle>
    <vehicle id="205" depart="143.50">
        <route edges="2:3"/>
    </vehicle>
    <vehicle id="210" depart="147.00">
        <route edges="15:14 14:2 2:3"/>
    </vehicle>
    <vehicle id="211" depart="147.70">
        <route edges="1:0 0:10 10:11"/>
    </vehicle>
    <vehicle id="212" depart="148.40">
        <route edges="3:2"/>
    </vehicle>
    <vehicle id="213" depart="149.10">
        <route edges="17:16 16:3 3:2 2:14"/>
    </vehicle>
    <vehicle id="214" depart="149.80">
        <route edges="7:5 5:3 3:16 16:17"/>
    </vehicle>
    <vehicle id="216" depart="151.20">
        <route edges="7:5 5:3"/>
    </vehicle>
    <vehicle id="217" depart="151.90">
        <route edges="6:4 4:0 0:1 1:12 12:13"/>
    </vehicle>
    <vehicle id="220" depart="154.00">
        <route edges="15:14 14:2 2:3 3:16 16:17"/>
    </vehicle>
    <vehicle id="221" depart="154.70">
        <route edges="9:8 8:0 0:4"/>
    </vehicle>
    <vehicle id="222" depart="155.40">
        <route edges="6:4 4:0 0:1 1:2 2:3 3:5 5:7"/>
    </vehicle>
    <vehicle id="223" depart="156.10">
        <route edges="9:8 8:0 0:4 4:6"/>
    </vehicle>
    <vehicle id="224" depart="156.80">
        <route edges="19:18 18:3 3:2 2:1 1:12"/>
    </vehicle>
    <vehicle id="226" depart="158.20">
        <route edges="6:4 4:0 0:1 1:2 2:3 3:16 16:17"/>
    </vehicle>
    <vehicle id="227" depart="158.90">
        <route edges="6:4 4:0 0:1 1:12"/>
    </vehicle>
    <vehicle id="228" depart="159.60">
        <route edges="6:4 4:0 0:1 1:2 2:14 14:15"/>
    </vehicle>
    <vehicle id="233" depart="163.10">
        <route edges="12:1 1:2 2:3 3:5 5:7"/>
    </vehicle>
    <vehicle id="235" depart="164.50">
        <route edges="17:16 16:3 3:2 2:1 1:12 12:13"/>
    </vehicle>
    <vehicle id="236" depart="165.20">
        <route edges="3:2 2:1 1:0 0:10"/>
    </vehicle>
    <vehicle id="238" depart="166.60">
        <route edges="13:12 12:1 1:0 0:4"/>
    </vehicle>
    <vehicle id="239" depart="167.30">
        <route edges="17:16 16:3 3:2 2:1 1:12 12:13"/>
    </vehicle>
    <vehicle id="241" depart="168.70">
        <route edges="3:2"/>
    </vehicle>
    <vehicle id="242" depart="169.40">
        <route edges="3:2 2:1 1:0 0:4 4:6"/>
    </vehicle>
    <vehicle id="243" depart="170.10">
        <route edges="2:3 3:18 18:19"/>
    </vehicle>
    <vehicle id="244" depart="170.80">
        <route edges="14:2 2:1 1:0 0:4"/>
    </vehicle>
    <vehicle id="245" depart="171.50">
        <route edges="11:10 10:0 0:4 4:6"/>
    </vehicle>
    <vehicle id="246" depart="172.20">
        <route edges="1:0 0:10 10:11"/>
    </vehicle>
    <vehicle id="252" depart="176.40">
        <route edges="2:1 1:0 0:4 4:6"/>
    </vehicle>
    <vehicle id="254" depart="177.80">
        <route edges="17:16 16:3 3:2 2:1 1:0"/>
    </vehicle>
    <vehicle id="255" depart="178.50">
        <route edges="4:0 0:1 1:2 2:3 3:5"/>
    </vehicle>
    <vehicle id="256" depart="179.20">
        <route edges="3:2 2:1 1:0 0:8 8:9"/>
    </vehicle>
    <vehicle id="257" depart="179.90">
        <route edges="6:4 4:0 0:8 8:9"/>
    </vehicle>
    <vehicle id="258" depart="180.60">
        <route edges="13:12 12:1 1:2 2:3 3:5 5:7"/>
    </vehicle>
    <vehicle id="259" depart="181.30">
        <route edges="3:2 2:1 1:0 0:4"/>
    </vehicle>
    <vehicle id="260" depart="182.00">
        <route edges="7:5 5:3 3:2"/>
    </vehicle>
    <vehicle id="262" depart="183.40">
        <route edges="19:18 18:3 3:2 2:1 1:12 12:13"/>
    </vehicle>
    <vehicle id="265" depart="185.50">
        <route edges="6:4 4:0 0:1 1:2 2:3 3:18 18:19"/>
    </vehicle>
    <vehicle id="266" depart="186.20">
        <route edges="19:18 18:3 3:2 2:1 1:0 0:10"/>
    </vehicle>
    <vehicle id="267" depart="186.90">
        <route edges="13:12 12:1 1:2 2:3 3:16 16:17"/>
    </vehicle>
    <vehicle id="268" depart="187.60">
        <route edges="6:4 4:0 0:10 10:11"/>
    </vehicle>
    <vehicle id="270" depart="189.00">
        <route edges="13:12 12:1 1:0 0:10 10:11"/>
    </vehicle>
    <vehicle id="273" depart="191.10">
        <route edges="6:4 4:0 0:10 10:11"/>
    </vehicle>
    <vehicle id="274" depart="191.80">
        <route edges="17:16 16:3 3:2 2:1 1:0 0:4 4:6"/>
    </vehicle>
    <vehicle id="277" depart="193.90">
        <route edges="18:3 3:2 2:1 1:0 0:8 8:9"/>
    </vehicle>
    <vehicle id="279" depart="195.30">
        <route edges="7:5 5:3 3:2 2:14 14:15"/>
    </vehicle>
    <vehicle id="280" depart="196.00">
        <route edges="8:0 0:1 1:2 2:3 3:5"/>
    </vehicle>
    <vehicle id="281" depart="196.70">
        <route edges="8:0 0:10"/>
    </vehicle>
    <vehicle id="283" depart="198.10">
        <route edges="11:10 10:0 0:4 4:6"/>
    </vehicle>
    <vehicle id="284" depart="198.80">
        <route edges="8:0 0:1 1:2 2:14 14:15"/>
    </vehicle>
    <vehicle id="286" depart="200.20">
        <route edges="13:12 12:1 1:0"/>
    </vehicle>
    <vehicle id="287" depart="200.90">
        <route edges="0:1 1:2 2:14"/>
    </vehicle>
    <vehicle id="289" depart="202.30">
        <route edges="6:4 4:0 0:8"/>
    </vehicle>
    <vehicle id="291" depart="203.70">
        <route edges="7:5 5:3 3:2 2:1 1:0"/>
    </vehicle>
    <vehicle id="293" depart="205.10">
        <route edges="6:4 4:0 0:8 8:9"/>
    </vehicle>
    <vehicle id="294" depart="205.80">
        <route edges="5:3 3:2 2:14 14:15"/>
    </vehicle>
    <vehicle id="295" depart="206.50">
        <route edges="17:16 16:3 3:18 18:19"/>
    </vehicle>
    <vehicle id="296" depart="207.20">
        <route edges="6:4 4:0 0:1 1:2 2:3 3:18 18:19"/>
    </vehicle>
    <vehicle id="302" depart="211.40">
        <route edges="11:10 10:0 0:8 8:9"/>
    </vehicle>
    <vehicle id="304" depart="212.80">
        <route edges="6:4 4:0 0:1 1:2 2:3 3:16 16:17"/>
    </vehicle>
    <vehicle id="305" depart="213.50">
        <route edges="3:2 2:1 1:0 0:4 4:6"/>
    </vehicle>
    <vehicle id="306" depart="214.20">
        <route edges="9:8 8:0 0:1 1:2 2:14 14:15"/>
    </vehicle>
    <vehicle id="309" depart="216.30">
        <route edges="9:8 8:0 0:1 1:2 2:3 3:16 16:17"/>
    </vehicle>
    <vehicle id="310" depart="217.00">
        <route edges="11:10 10:0 0:1 1:12 12:13"/>
    </vehicle>
    <vehicle id="311" depart="217.70">
        <route edges="6:4 4:0 0:1 1:2 2:3 3:18 18:19"/>
    </vehicle>
    <vehicle id="312" depart="218.40">
        <route edges="1:2 2:3 3:16 16:17"/>
    </vehicle>
    <vehicle id="313" depart="219.10">
        <route edges="10:0 0:1 1:2 2:3"/>
    </vehicle>
    <vehicle id="314" depart="219.80">
        <route edges="9:8 8:0 0:1 1:2 2:14 14:15"/>
    </vehicle>
    <vehicle id="317" depart="221.90">
        <route edges="17:16 16:3 3:5"/>
    </vehicle>
    <vehicle id="318" depart="222.60">
        <route edges="6:4 4:0 0:1 1:2 2:3"/>
    </vehicle>
    <vehicle id="319" depart="223.30">
        <route edges="18:3 3:2 2:1 1:0 0:4"/>
    </vehicle>
    <vehicle id="321" depart="224.70">
        <route edges="11:10 10:0 0:1 1:2 2:3 3:18 18:19"/>
    </vehicle>
    <vehicle id="324" depart="226.80">
        <route edges="7:5 5:3"/>
    </vehicle>
    <vehicle id="325" depart="227.50">
        <route edges="9:8 8:0 0:10"/>
    </vehicle>
    <vehicle id="327" depart="228.90">
        <route edges="7:5 5:3 3:2 2:1 1:0 0:4 4:6"/>
    </vehicle>
    <vehicle id="331" depart="231.70">
        <route edges="7:5 5:3 3:2 2:1 1:12 12:13"/>
    </vehicle>
    <vehicle id="332" depart="232.40">
        <route edges="1:2 2:14 14:15"/>
    </vehicle>
    <vehicle id="333" depart="233.10">
        <route edges="12:1 1:2 2:14 14:15"/>
    </vehicle>
    <vehicle id="337" depart="235.90">
        <route edges="6:4 4:0 0:1 1:2 2:3"/>
    </vehicle>
    <vehicle id="338" depart="236.60">
        <route edges="6:4 4:0 0:1 1:2 2:3"/>
    </vehicle>
    <vehicle id="342" depart="239.40">
        <route edges="12:1 1:2 2:3 3:5 5:7"/>
    </vehicle>
    <vehicle id="343" depart="240.10">
        <route edges="17:16 16:3 3:5 5:7"/>
    </vehicle>
    <vehicle id="346" depart="242.20">
        <route edges="7:5 5:3 3:2 2:1 1:0 0:4 4:6"/>
    </vehicle>
    <vehicle id="348" depart="243.60">
        <route edges="11:10 10:0 0:1 1:2 2:14 14:15"/>
    </vehicle>
    <vehicle id="349" depart="244.30">
        <route edges="13:12 12:1 1:2 2:3 3:18 18:19"/>
    </vehicle>
    <vehicle id="350" depart="245.00">
        <route edges="11:10 10:0 0:1 1:2 2:3 3:18 18:19"/>
    </vehicle>
    <vehicle id="351" depart="245.70">
        <route edges="7:5 5:3 3:2 2:1 1:0 0:10"/>
    </vehicle>
    <vehicle id="352" depart="246.40">
        <route edges="12:1 1:0 0:8 8:9"/>
    </vehicle>
    <vehicle id="353" depart="247.10">
        <route edges="9:8 8:0 0:1 1:2 2:3 3:5 5:7"/>
    </vehicle>
    <vehicle id="354" depart="247.80">
        <route edges="4:0 0:1 1:2 2:3 3:5"/>
    </vehicle>
    <vehicle id="356" depart="249.20">
        <route edges="7:5 5:3 3:2"/>
    </vehicle>
    <vehicle id="358" depart="250.60">
        <route edges="4:0 0:1 1:2"/>
    </vehicle>
    <vehicle id="362" depart="253.40">
        <route edges="9:8 8:0 0:4 4:6"/>
    </vehicle>
    <vehicle id="366" depart="256.20">
        <route edges="11:10 10:0"/>
    </vehicle>
    <vehicle id="369" depart="258.30">
        <route edges="6:4 4:0 0:1 1:12 12:13"/>
    </vehicle>
    <vehicle id="370" depart="259.00">
        <route edges="15:14 14:2 2:1 1:12 12:13"/>
    </vehicle>
    <vehicle id="373" depart="261.10">
        <route edges="7:5 5:3 3:2 2:1 1:12 12:13"/>
    </vehicle>
    <vehicle id="379" depart="265.30">
        <route edges="8:0 0:4 4:6"/>
    </vehicle>
    <vehicle id="380" depart="266.00">
        <route edges="13:12 12:1 1:2 2:14 14:15"/>
    </vehicle>
    <vehicle id="382" depart="267.40">
        <route edges="4:0 0:1 1:2 2:3 3:16 16:17"/>
    </vehicle>
    <vehicle id="385" depart="269.50">
        <route edges="17:16 16:3 3:5 5:7"/>
    </vehicle>
    <vehicle id="386" depart="270.20">
        <route edges="9:8 8:0 0:4"/>
    </vehicle>
    <vehicle id="388" depart="271.60">
        <route edges="11:10 10:0 0:1 1:2 2:3 3:18"/>
    </vehicle>
    <vehicle id="389" depart="272.30">
        <route edges="19:18 18:3 3:2 2:1 1:0 0:10 10:11"/>
    </vehicle>
    <vehicle id="391" depart="273.70">
        <route edges="4:0 0:1 1:2 2:3 3:18 18:19"/>
    </vehicle>
    <vehicle id="392" depart="274.40">
        <route edges="17:16 16:3 3:2 2:1 1:0 0:4 4:6"/>
    </vehicle>
    <vehicle id="393" depart="275.10">
        <route edges="5:3 3:2 2:1 1:0 0:8"/>
    </vehicle>
    <vehicle id="394" depart="275.80">
        <route edges="7:5 5:3 3:2 2:1 1:0 0:4 4:6"/>
    </vehicle>
    <vehicle id="396" depart="277.20">
        <route edges="4:0 0:1 1:2 2:3 3:5 5:7"/>
    </vehicle>
    <vehicle id="399" depart="279.30">
        <route edges="5:3 3:2 2:1 1:0 0:4 4:6"/>
    </vehicle>
    <vehicle id="402" depart="281.40">
        <route edges="3:2"/>
    </vehicle>
    <vehicle id="405" depart="283.50">
        <route edges="7:5 5:3 3:16"/>
    </vehicle>
    <vehicle id="406" depart="284.20">
        <route edges="0:1 1:2 2:3 3:16"/>
    </vehicle>
    <vehicle id="408" depart="285.60">
        <route edges="3:2 2:1 1:0 0:10 10:11"/>
    </vehicle>
    <vehicle id="411" depart="287.70">
        <route edges="7:5 5:3 3:18 18:19"/>
    </vehicle>
    <vehicle id="412" depart="288.40">
        <route edges="5:3 3:2 2:1 1:0 0:8 8:9"/>
    </vehicle>
    <vehicle id="413" depart="289.10">
        <route edges="15:14 14:2 2:3 3:16 16:17"/>
    </vehicle>
    <vehicle id="414" depart="289.80">
        <route edges="7:5 5:3 3:2 2:1 1:0 0:10 10:11"/>
    </vehicle>
    <vehicle id="420" depart="294.00">
        <route edges="17:16 16:3 3:2 2:1 1:0 0:8 8:9"/>
    </vehicle>
    <vehicle id="421" depart="294.70">
        <route edges="4:0 0:1 1:2 2:3 3:18 18:19"/>
    </vehicle>
    <vehicle id="423" depart="296.10">
        <route edges="17:16 16:3 3:18 18:19"/>
    </vehicle>
    <vehicle id="425" depart="297.50">
        <route edges="17:16 16:3 3:18 18:19"/>
    </vehicle>
    <vehicle id="426" depart="298.20">
        <route edges="11:10 10:0 0:1 1:2 2:3 3:16"/>
    </vehicle>
    <vehicle id="427" depart="298.90">
        <route edges="6:4 4:0 0:1 1:2"/>
    </vehicle>
    <vehicle id="428" depart="299.60">
        <route edges="7:5 5:3 3:18"/>
    </vehicle>
    <vehicle id="431" depart="301.70">
        <route edges="2:3 3:5"/>
    </vehicle>
    <vehicle id="432" depart="302.40">
        <route edges="13:12 12:1 1:0 0:4 4:6"/>
    </vehicle>
    <vehicle id="433" depart="303.10">
        <route edges="9:8 8:0 0:4 4:6"/>
    </vehicle>
    <vehicle id="435" depart="304.50">
        <route edges="7:5 5:3 3:2 2:1"/>
    </vehicle>
    <vehicle id="436" depart="305.20">
        <route edges="5:3 3:2 2:1 1:0 0:4 4:6"/>
    </vehicle>
    <vehicle id="442" depart="309.40">
        <route edges="2:3"/>
    </vehicle>
    <vehicle id="443" depart="310.10">
        <route edges="6:4 4:0 0:1 1:2 2:3 3:18 18:19"/>
    </vehicle>
    <vehicle id="447" depart="312.90">
        <route edges="9:8 8:0 0:1 1:2 2:3 3:16"/>
    </vehicle>
    <vehicle id="451" depart="315.70">
        <route edges="2:1"/>
    </vehicle>
    <vehicle id="452" depart="316.40">
        <route edges="5:3"/>
    </vehicle>
    <vehicle id="453" depart="317.10">
        <route edges="17:16 16:3 3:2 2:1 1:0 0:10"/>
    </vehicle>
    <vehicle id="455" depart="318.50">
        <route edges="7:5 5:3 3:2 2:1 1:0 0:10"/>
    </vehicle>
    <vehicle id="456" depart="319.20">
        <route edges="9:8 8:0 0:1 1:2 2:14"/>
    </vehicle>
    <vehicle id="457" depart="319.90">
        <route edges="2:1 1:0 0:4 4:6"/>
    </vehicle>
    <vehicle id="460" depart="322.00">
        <route edges="6:4 4:0 0:1 1:12 12:13"/>
    </vehicle>
    <vehicle id="461" depart="322.70">
        <route edges="14:2 2:1 1:0 0:8 8:9"/>
    </vehicle>
    <vehicle id="462" depart="323.40">
        <route edges="10:0 0:1 1:2 2:3"/>
    </vehicle>
    <vehicle id="463" depart="324.10">
        <route edges="1:2 2:14 14:15"/>
    </vehicle>
    <vehicle id="465" depart="325.50">
        <route edges="2:3 3:16 16:17"/>
    </vehicle>
    <vehicle id="466" depart="326.20">
        <route edges="7:5 5:3 3:2"/>
    </vehicle>
    <vehicle id="468" depart="327.60">
        <route edges="0:4 4:6"/>
    </vehicle>
    <vehicle id="473" depart="331.10">
        <route edges="2:3 3:18 18:19"/>
    </vehicle>
    <vehicle id="474" depart="331.80">
        <route edges="13:12 12:1 1:2 2:3 3:5"/>
    </vehicle>
    <vehicle id="477" depart="333.90">
        <route edges="6:4 4:0 0:1 1:2 2:3 3:5 5:7"/>
    </vehicle>
    <vehicle id="480" depart="336.00">
        <route edges="6:4 4:0 0:1 1:2 2:14 14:15"/>
    </vehicle>
    <vehicle id="482" depart="337.40">
        <route edges="6:4 4:0 0:1 1:2 2:3 3:5 5:7"/>
    </vehicle>
    <vehicle id="484" depart="338.80">
        <route edges="3:2 2:1 1:0 0:4 4:6"/>
    </vehicle>
    <vehicle id="488" depart="341.60">
        <route edges="6:4 4:0 0:1 1:2 2:3 3:18 18:19"/>
    </vehicle>
    <vehicle id="490" depart="343.00">
        <route edges="7:5 5:3 3:2 2:14"/>
    </vehicle>
    <vehicle id="491" depart="343.70">
        <route edges="7:5 5:3 3:16 16:17"/>
    </vehicle>
    <vehicle id="493" depart="345.10">
        <route edges="6:4 4:0 0:1 1:2 2:3 3:18 18:19"/>
    </vehicle>
    <vehicle id="494" depart="345.80">
        <route edges="6:4 4:0 0:10"/>
    </vehicle>
    <vehicle id="495" depart="346.50">
        <route edges="4:0 0:1 1:2 2:3"/>
    </vehicle>
    <vehicle id="498" depart="348.60">
        <route edges="11:10 10:0 0:1 1:12 12:13"/>
    </vehicle>
    <vehicle id="501" depart="350.70">
        <route edges="9:8 8:0 0:1 1:2 2:14 14:15"/>
    </vehicle>
    <vehicle id="505" depart="353.50">
        <route edges="3:2 2:1 1:0 0:4 4:6"/>
    </vehicle>
    <vehicle id="508" depart="355.60">
        <route edges="7:5 5:3 3:2 2:1 1:0 0:8 8:9"/>
    </vehicle>
    <vehicle id="509" depart="356.30">
        <route edges="7:5 5:3 3:2 2:1 1:0 0:10"/>
    </vehicle>
    <vehicle id="510" depart="357.00">
        <route edges="2:3 3:18"/>
    </vehicle>
    <vehicle id="517" depart="361.90">
        <route edges="13:12 12:1 1:0 0:4"/>
    </vehicle>
    <vehicle id="519" depart="363.30">
        <route edges="14:2 2:1 1:12 12:13"/>
    </vehicle>
    <vehicle id="521" depart="364.70">
        <route edges="19:18 18:3 3:2 2:1 1:0 0:8"/>
    </vehicle>
    <vehicle id="522" depart="365.40">
        <route edges="4:0 0:10"/>
    </vehicle>
    <vehicle id="525" depart="367.50">
        <route edges="16:3 3:2 2:1"/>
    </vehicle>
    <vehicle id="529" depart="370.30">
        <route edges="19:18 18:3 3:2 2:14 14:15"/>
    </vehicle>
    <vehicle id="531" depart="371.70">
        <route edges="5:3"/>
    </vehicle>
    <vehicle id="534" depart="373.80">
        <route edges="11:10 10:0 0:1 1:2 2:3 3:16 16:17"/>
    </vehicle>
    <vehicle id="539" depart="377.30">
        <route edges="7:5 5:3 3:2 2:1 1:12"/>
    </vehicle>
    <vehicle id="541" depart="378.70">
        <route edges="7:5 5:3 3:2 2:1 1:0 0:10 10:11"/>
    </vehicle>
    <vehicle id="544" depart="380.80">
        <route edges="6:4 4:0 0:1 1:2 2:3 3:5 5:7"/>
    </vehicle>
    <vehicle id="546" depart="382.20">
        <route edges="5:3 3:2"/>
    </vehicle>
    <vehicle id="548" depart="383.60">
        <route edges="11:10 10:0"/>
    </vehicle>
    <vehicle id="550" depart="385.00">
        <route edges="6:4 4:0 0:1 1:2 2:3 3:18 18:19"/>
    </vehicle>
    <vehicle id="551" depart="385.70">
        <route edges="6:4 4:0 0:1 1:2 2:3"/>
    </vehicle>
    <vehicle id="559" depart="391.30">
        <route edges="11:10 10:0 0:1 1:12 12:13"/>