<?xml version="1.0" encoding="UTF-8"?>

<!-- generated on Thu Oct 23 22:34:45 2014 by SUMO duarouter Version 0.18.0
<?xml version="1.0" encoding="UTF-8"?>

<configuration xmlns:xsi="http://www.w3.org/2001/XMLSchema-instance" xsi:noNamespaceSchemaLocation="http://sumo.sf.net/xsd/duarouterConfiguration.xsd">

    <input>
        <net-file value="corridor.net.xml"/>
        <trip-files value="experimentos/corridor.p1.0.2.trips.xml"/>
    </input>

    <output>
        <output-file value="experimentos/corridor.p1.0.2.rou.xml"/>
    </output>

    <processing>
        <ignore-errors value="true"/>
    </processing>

    <random_number>
        <random value="true"/>
    </random_number>

</configuration>
-->

<routes xmlns:xsi="http://www.w3.org/2001/XMLSchema-instance" xsi:noNamespaceSchemaLocation="http://sumo.sf.net/xsd/routes_file.xsd">
    <vehicle id="1" depart="1.00">
        <route edges="19:18 18:3 3:2 2:1 1:0 0:4"/>
    </vehicle>
    <vehicle id="2" depart="2.00">
        <route edges="13:12 12:1 1:2 2:3 3:5 5:7"/>
    </vehicle>
    <vehicle id="12" depart="12.00">
        <route edges="17:16 16:3 3:2 2:1 1:0 0:10"/>
    </vehicle>
    <vehicle id="13" depart="13.00">
        <route edges="6:4 4:0 0:1 1:2 2:3 3:16 16:17"/>
    </vehicle>
    <vehicle id="14" depart="14.00">
        <route edges="13:12 12:1 1:0 0:10 10:11"/>
    </vehicle>
    <vehicle id="15" depart="15.00">
        <route edges="4:0 0:8"/>
    </vehicle>
    <vehicle id="16" depart="16.00">
        <route edges="19:18 18:3 3:2 2:14 14:15"/>
    </vehicle>
    <vehicle id="17" depart="17.00">
        <route edges="5:3 3:2 2:14 14:15"/>
    </vehicle>
    <vehicle id="18" depart="18.00">
        <route edges="15:14 14:2 2:3"/>
    </vehicle>
    <vehicle id="19" depart="19.00">
        <route edges="13:12 12:1 1:0 0:4"/>
    </vehicle>
    <vehicle id="22" depart="22.00">
        <route edges="6:4 4:0 0:1 1:2 2:3 3:18 18:19"/>
    </vehicle>
    <vehicle id="23" depart="23.00">
        <route edges="4:0 0:1 1:2 2:3 3:5"/>
    </vehicle>
    <vehicle id="25" depart="25.00">
        <route edges="11:10 10:0 0:4 4:6"/>
    </vehicle>
    <vehicle id="27" depart="27.00">
        <route edges="19:18 18:3 3:2 2:1 1:0 0:4 4:6"/>
    </vehicle>
    <vehicle id="28" depart="28.00">
        <route edges="1:0 0:4 4:6"/>
    </vehicle>
    <vehicle id="29" depart="29.00">
        <route edges="6:4 4:0 0:1 1:2 2:3 3:16 16:17"/>
    </vehicle>
    <vehicle id="30" depart="30.00">
        <route edges="2:3"/>
    </vehicle>
    <vehicle id="31" depart="31.00">
        <route edges="16:3 3:2 2:1 1:0 0:4 4:6"/>
    </vehicle>
    <vehicle id="32" depart="32.00">
        <route edges="7:5 5:3 3:2 2:1 1:12 12:13"/>
    </vehicle>
    <vehicle id="33" depart="33.00">
        <route edges="15:14 14:2 2:1 1:0 0:4"/>
    </vehicle>
    <vehicle id="34" depart="34.00">
        <route edges="10:0 0:1 1:2 2:3 3:18 18:19"/>
    </vehicle>
    <vehicle id="35" depart="35.00">
        <route edges="7:5 5:3 3:2 2:1 1:0 0:4 4:6"/>
    </vehicle>
    <vehicle id="36" depart="36.00">
        <route edges="8:0 0:1 1:2 2:3"/>
    </vehicle>
    <vehicle id="37" depart="37.00">
        <route edges="17:16 16:3 3:2 2:1 1:0 0:10 10:11"/>
    </vehicle>
    <vehicle id="38" depart="38.00">
        <route edges="4:0 0:1 1:2 2:3 3:5 5:7"/>
    </vehicle>
    <vehicle id="40" depart="40.00">
        <route edges="10:0 0:1"/>
    </vehicle>
    <vehicle id="41" depart="41.00">
        <route edges="15:14 14:2 2:3 3:18 18:19"/>
    </vehicle>
    <vehicle id="43" depart="43.00">
        <route edges="7:5 5:3 3:2 2:1 1:0 0:4"/>
    </vehicle>
    <vehicle id="44" depart="44.00">
        <route edges="6:4 4:0 0:10 10:11"/>
    </vehicle>
    <vehicle id="46" depart="46.00">
        <route edges="5:3 3:2 2:1 1:0 0:10"/>
    </vehicle>
    <vehicle id="47" depart="47.00">
        <route edges="2:3 3:5 5:7"/>
    </vehicle>
    <vehicle id="49" depart="49.00">
        <route edges="6:4 4:0 0:1 1:2 2:3 3:5"/>
    </vehicle>
    <vehicle id="50" depart="50.00">
        <route edges="7:5 5:3 3:16 16:17"/>
    </vehicle>
    <vehicle id="51" depart="51.00">
        <route edges="6:4 4:0 0:1 1:2 2:3 3:18 18:19"/>
    </vehicle>
    <vehicle id="54" depart="54.00">
        <route edges="7:5 5:3 3:2 2:1 1:12"/>
    </vehicle>
    <vehicle id="55" depart="55.00">
        <route edges="11:10 10:0 0:1 1:12"/>
    </vehicle>
    <vehicle id="57" depart="57.00">
        <route edges="11:10 10:0 0:1 1:2 2:3 3:5"/>
    </vehicle>
    <vehicle id="58" depart="58.00">
        <route edges="17:16 16:3 3:2 2:1 1:12"/>
    </vehicle>
    <vehicle id="60" depart="60.00">
        <route edges="11:10 10:0 0:1 1:2 2:3 3:5 5:7"/>
    </vehicle>
    <vehicle id="62" depart="62.00">
        <route edges="4:0 0:1 1:2 2:3 3:18 18:19"/>
    </vehicle>
    <vehicle id="63" depart="63.00">
        <route edges="3:2 2:1 1:0 0:4 4:6"/>
    </vehicle>
    <vehicle id="66" depart="66.00">
        <route edges="0:1 1:2 2:3 3:5 5:7"/>
    </vehicle>
    <vehicle id="68" depart="68.00">
        <route edges="6:4 4:0 0:1 1:2 2:3 3:5"/>
    </vehicle>
    <vehicle id="69" depart="69.00">
        <route edges="12:1 1:0 0:4 4:6"/>
    </vehicle>
    <vehicle id="70" depart="70.00">
        <route edges="7:5 5:3 3:2 2:1 1:0 0:8 8:9"/>
    </vehicle>
    <vehicle id="73" depart="73.00">
        <route edges="6:4 4:0 0:8"/>
    </vehicle>
    <vehicle id="75" depart="75.00">
        <route edges="15:14 14:2 2:1 1:0 0:10 10:11"/>
    </vehicle>
    <vehicle id="78" depart="78.00">
        <route edges="6:4 4:0 0:10 10:11"/>
    </vehicle>
    <vehicle id="81" depart="81.00">
        <route edges="2:3 3:5 5:7"/>
    </vehicle>
    <vehicle id="83" depart="83.00">
        <route edges="13:12 12:1 1:2 2:3 3:16 16:17"/>
    </vehicle>
    <vehicle id="84" depart="84.00">
        <route edges="0:4 4:6"/>
    </vehicle>
    <vehicle id="86" depart="86.00">
        <route edges="2:3 3:5"/>
    </vehicle>
    <vehicle id="87" depart="87.00">
        <route edges="6:4 4:0 0:8 8:9"/>
    </vehicle>
    <vehicle id="88" depart="88.00">
        <route edges="19:18 18:3 3:16 16:17"/>
    </vehicle>
    <vehicle id="89" depart="89.00">
        <route edges="3:2 2:1 1:0 0:8 8:9"/>
    </vehicle>
    <vehicle id="92" depart="92.00">
        <route edges="6:4 4:0 0:10 10:11"/>
    </vehicle>
    <vehicle id="93" depart="93.00">
        <route edges="15:14 14:2 2:3 3:18 18:19"/>
    </vehicle>
    <vehicle id="96" depart="96.00">
        <route edges="12:1 1:2 2:3"/>
    </vehicle>
    <vehicle id="98" depart="98.00">
        <route edges="18:3 3:5 5:7"/>
    </vehicle>
    <vehicle id="100" depart="100.00">
        <route edges="13:12 12:1 1:0 0:10"/>
    </vehicle>
    <vehicle id="106" depart="106.00">
        <route edges="14:2 2:3 3:16"/>
    </vehicle>
    <vehicle id="107" depart="107.00">
        <route edges="12:1 1:0 0:10 10:11"/>
    </vehicle>
    <vehicle id="111" depart="111.00">
        <route edges="1:2 2:3 3:16 16:17"/>
    </vehicle>
    <vehicle id="113" depart="113.00">
        <route edges="17:16 16:3 3:2 2:1 1:0 0:10 10:11"/>
    </vehicle>
    <vehicle id="117" depart="117.00">
        <route edges="7:5 5:3 3:18 18:19"/>
    </vehicle>
    <vehicle id="118" depart="118.00">
        <route edges="17:16 16:3 3:5"/>
    </vehicle>
    <vehicle id="119" depart="119.00">
        <route edges="7:5 5:3 3:2 2:1 1:0 0:4 4:6"/>
    </vehicle>
    <vehicle id="120" depart="120.00">
        <route edges="17:16 16:3 3:2 2:1 1:0 0:8 8:9"/>
    </vehicle>
    <vehicle id="122" depart="122.00">
        <route edges="6:4 4:0 0:1 1:2 2:3 3:5 5:7"/>
    </vehicle>
    <vehicle id="125" depart="125.00">
        <route edges="6:4 4:0 0:1 1:2 2:3 3:18 18:19"/>
    </vehicle>
    <vehicle id="126" depart="126.00">
        <route edges="12:1 1:0 0:8 8:9"/>
    </vehicle>
    <vehicle id="128" depart="128.00">
        <route edges="14:2 2:3 3:5 5:7"/>
    </vehicle>
    <vehicle id="132" depart="132.00">
        <route edges="10:0 0:1 1:2"/>
    </vehicle>
    <vehicle id="136" depart="136.00">
        <route edges="6:4 4:0 0:1 1:2 2:3 3:5 5:7"/>
    </vehicle>
    <vehicle id="137" depart="137.00">
        <route edges="6:4 4:0 0:10"/>
    </vehicle>
    <vehicle id="138" depart="138.00">
        <route edges="5:3 3:2"/>
    </vehicle>
    <vehicle id="139" depart="139.00">
        <route edges="9:8 8:0 0:1 1:2 2:3 3:5"/>
    </vehicle>
    <vehicle id="142" depart="142.00">
        <route edges="7:5 5:3 3:2 2:1 1:0 0:8 8:9"/>
    </vehicle>
    <vehicle id="143" depart="143.00">
        <route edges="6:4 4:0 0:1 1:2 2:3 3:5 5:7"/>
    </vehicle>
    <vehicle id="145" depart="145.00">
        <route edges="15:14 14:2 2:1 1:0 0:10 10:11"/>
    </vehicle>
    <vehicle id="146" depart="146.00">
        <route edges="14:2 2:1 1:12 12:13"/>
    </vehicle>
    <vehicle id="148" depart="148.00">
        <route edges="15:14 14:2 2:3 3:5 5:7"/>
    </vehicle>
    <vehicle id="150" depart="150.00">
        <route edges="0:4"/>
    </vehicle>
    <vehicle id="152" depart="152.00">
        <route edges="4:0 0:1"/>
    </vehicle>
    <vehicle id="153" depart="153.00">
        <route edges="17:16 16:3 3:18"/>
    </vehicle>
    <vehicle id="155" depart="155.00">
        <route edges="1:0 0:8 8:9"/>
    </vehicle>
    <vehicle id="156" depart="156.00">
        <route edges="7:5 5:3 3:2 2:1 1:0 0:4 4:6"/>
    </vehicle>
    <vehicle id="157" depart="157.00">
        <route edges="8:0 0:1 1:2 2:3 3:16 16:17"/>
    </vehicle>
    <vehicle id="159" depart="159.00">
        <route edges="6:4 4:0 0:1 1:2 2:3 3:5 5:7"/>
    </vehicle>
    <vehicle id="163" depart="163.00">
        <route edges="15:14 14:2 2:3 3:5"/>
    </vehicle>
    <vehicle id="166" depart="166.00">
        <route edges="15:14 14:2 2:3 3:18 18:19"/>
    </vehicle>
    <vehicle id="168" depart="168.00">
        <route edges="5:3 3:2 2:1 1:12 12:13"/>
    </vehicle>
    <vehicle id="170" depart="170.00">
        <route edges="4:0 0:1 1:2 2:3 3:5"/>
    </vehicle>
    <vehicle id="172" depart="172.00">
        <route edges="6:4 4:0 0:10 10:11"/>
    </vehicle>
    <vehicle id="176" depart="176.00">
        <route edges="11:10 10:0 0:1 1:2 2:14 14:15"/>
    </vehicle>
    <vehicle id="177" depart="177.00">
        <route edges="6:4 4:0 0:1 1:2 2:3 3:5 5:7"/>
    </vehicle>
    <vehicle id="178" depart="178.00">
        <route edges="15:14 14:2 2:1 1:0 0:8 8:9"/>
    </vehicle>
    <vehicle id="184" depart="184.00">
        <route edges="19:18 18:3 3:2"/>
    </vehicle>
    <vehicle id="185" depart="185.00">
        <route edges="17:16 16:3 3:2 2:1 1:0 0:8 8:9"/>
    </vehicle>
    <vehicle id="186" depart="186.00">
        <route edges="7:5 5:3 3:2 2:14 14:15"/>
    </vehicle>
    <vehicle id="187" depart="187.00">
        <route edges="7:5 5:3 3:2 2:1 1:0 0:8 8:9"/>
    </vehicle>
    <vehicle id="188" depart="188.00">
        <route edges="17:16 16:3 3:5 5:7"/>
    </vehicle>
    <vehicle id="191" depart="191.00">
        <route edges="8:0"/>
    </vehicle>
    <vehicle id="193" depart="193.00">
        <route edges="2:1 1:0 0:10"/>
    </vehicle>
    <vehicle id="194" depart="194.00">
        <route edges="10:0 0:4"/>
    </vehicle>
    <vehicle id="195" depart="195.00">
        <route edges="2:3 3:5 5:7"/>
    </vehicle>
    <vehicle id="201" depart="201.00">
        <route edges="19:18 18:3 3:2 2:1 1:0 0:4 4:6"/>
    </vehicle>
    <vehicle id="203" depart="203.00">
        <route edges="9:8 8:0 0:1 1:12 12:13"/>
    </vehicle>
    <vehicle id="207" depart="207.00">
        <route edges="0:1 1:2 2:14 14:15"/>
    </vehicle>
    <vehicle id="208" depart="208.00">
        <route edges="17:16 16:3 3:5"/>
    </vehicle>
    <vehicle id="213" depart="213.00">
        <route edges="2:3 3:16 16:17"/>
    </vehicle>
    <vehicle id="217" depart="217.00">
        <route edges="9:8 8:0 0:1 1:2 2:3 3:5"/>
    </vehicle>
    <vehicle id="220" depart="220.00">
        <route edges="19:18 18:3 3:2 2:1 1:0"/>
    </vehicle>
    <vehicle id="221" depart="221.00">
        <route edges="11:10 10:0 0:1 1:2 2:14 14:15"/>
    </vehicle>
    <vehicle id="222" depart="222.00">
        <route edges="6:4 4:0 0:1 1:2 2:14 14:15"/>
    </vehicle>
    <vehicle id="223" depart="223.00">
        <route edges="4:0 0:8 8:9"/>
    </vehicle>
    <vehicle id="225" depart="225.00">
        <route edges="19:18 18:3 3:2 2:14 14:15"/>
    </vehicle>
    <vehicle id="226" depart="226.00">
        <route edges="7:5 5:3 3:2 2:1 1:0"/>
    </vehicle>
    <vehicle id="229" depart="229.00">
        <route edges="4:0 0:1 1:2 2:3 3:5 5:7"/>
    </vehicle>
    <vehicle id="230" depart="230.00">
        <route edges="3:16 16:17"/>
    </vehicle>
    <vehicle id="231" depart="231.00">
        <route edges="7:5 5:3 3:2 2:1 1:0 0:4 4:6"/>
    </vehicle>
    <vehicle id="232" depart="232.00">
        <route edges="15:14 14:2 2:1 1:12"/>
    </vehicle>
    <vehicle id="233" depart="233.00">
        <route edges="9:8 8:0 0:1 1:2 2:3 3:5 5:7"/>
    </vehicle>
    <vehicle id="234" depart="234.00">
        <route edges="9:8 8:0 0:1 1:2 2:3 3:18 18:19"/>
    </vehicle>
    <vehicle id="235" depart="235.00">
        <route edges="9:8 8:0 0:1 1:2 2:3 3:16"/>
    </vehicle>
    <vehicle id="241" depart="241.00">
        <route edges="2:3 3:5 5:7"/>
    </vehicle>
    <vehicle id="243" depart="243.00">
        <route edges="7:5 5:3 3:2 2:1 1:0"/>
    </vehicle>
    <vehicle id="244" depart="244.00">
        <route edges="16:3"/>
    </vehicle>
    <vehicle id="246" depart="246.00">
        <route edges="1:0 0:4"/>
    </vehicle>
    <vehicle id="248" depart="248.00">
        <route edges="4:0 0:1 1:2 2:3"/>
    </vehicle>
    <vehicle id="250" depart="250.00">
        <route edges="17:16 16:3 3:2 2:1 1:0 0:8 8:9"/>
    </vehicle>
    <vehicle id="253" depart="253.00">
        <route edges="10:0 0:1 1:2 2:14 14:15"/>
    </vehicle>
    <vehicle id="254" depart="254.00">
        <route edges="6:4 4:0 0:1 1:2 2:3"/>
    </vehicle>
    <vehicle id="255" depart="255.00">
        <route edges="9:8 8:0 0:4"/>
    </vehicle>
    <vehicle id="256" depart="256.00">
        <route edges="11:10 10:0 0:8 8:9"/>
    </vehicle>
    <vehicle id="257" depart="257.00">
        <route edges="15:14 14:2 2:3 3:5 5:7"/>
    </vehicle>
    <vehicle id="258" depart="258.00">
        <route edges="6:4 4:0 0:1 1:2 2:3 3:5 5:7"/>
    </vehicle>
    <vehicle id="259" depart="259.00">
        <route edges="4:0 0:1 1:2 2:3 3:5 5:7"/>
    </vehicle>
    <vehicle id="261" depart="261.00">
        <route edges="13:12 12:1 1:2 2:3"/>
    </vehicle>
    <vehicle id="263" depart="263.00">
        <route edges="2:1 1:0 0:10 10:11"/>
    </vehicle>
    <vehicle id="270" depart="270.00">
        <route edges="7:5 5:3 3:2"/>
    </vehicle>
    <vehicle id="273" depart="273.00">
        <route edges="4:0 0:1 1:2 2:3 3:5"/>
    </vehicle>
    <vehicle id="275" depart="275.00">
        <route edges="17:16 16:3 3:2 2:1 1:0 0:4"/>
    </vehicle>
    <vehicle id="277" depart="277.00">
        <route edges="10:0 0:1 1:2 2:3 3:18 18:19"/>
    </vehicle>
    <vehicle id="278" depart="278.00">
        <route edges="7:5 5:3 3:2"/>
    </vehicle>
    <vehicle id="280" depart="280.00">
        <route edges="7:5 5:3 3:2 2:14 14:15"/>
    </vehicle>
    <vehicle id="281" depart="281.00">
        <route edges="9:8 8:0 0:4 4:6"/>
    </vehicle>
    <vehicle id="282" depart="282.00">
        <route edges="5:3 3:2 2:1 1:0 0:4 4:6"/>
    </vehicle>
    <vehicle id="285" depart="285.00">
        <route edges="11:10 10:0 0:1 1:2 2:3 3:18 18:19"/>
    </vehicle>
    <vehicle id="287" depart="287.00">
        <route edges="13:12 12:1 1:0 0:4"/>
    </vehicle>
    <vehicle id="293" depart="293.00">
        <route edges="5:3"/>
    </vehicle>
    <vehicle id="295" depart="295.00">
        <route edges="2:1 1:0 0:4 4:6"/>
    </vehicle>
    <vehicle id="296" depart="296.00">
        <route edges="4:0 0:1 1:2 2:14 14:15"/>
    </vehicle>
    <vehicle id="297" depart="297.00">
        <route edges="7:5 5:3 3:2 2:1 1:0 0:10 10:11"/>
    </vehicle>
    <vehicle id="299" depart="299.00">
        <route edges="15:14 14:2 2:1 1:0 0:10 10:11"/>
    </vehicle>
    <vehicle id="301" depart="301.00">
        <route edges="7:5 5:3 3:2 2:1 1:12 12:13"/>
    </vehicle>
    <vehicle id="304" depart="304.00">
        <route edges="6:4 4:0 0:1 1:12 12:13"/>
    </vehicle>
    <vehicle id="307" depart="307.00">
        <route edges="9:8 8:0 0:1 1:2 2:3 3:5 5:7"/>
    </vehicle>
    <vehicle id="309" depart="309.00">
        <route edges="0:8 8:9"/>
    </vehicle>
    <vehicle id="310" depart="310.00">
        <route edges="16:3 3:2 2:1 1:0 0:4 4:6"/>
    </vehicle>
    <vehicle id="315" depart="315.00">
        <route edges="0:1 1:2 2:3 3:18 18:19"/>
    </vehicle>
    <vehicle id="317" depart="317.00">
        <route edges="4:0 0:1"/>
    </vehicle>
    <vehicle id="319" depart="319.00">
        <route edges="7:5 5:3 3:2 2:14 14:15"/>
    </vehicle>
    <vehicle id="320" depart="320.00">
        <route edges="15:14 14:2 2:1"/>
    </vehicle>
    <vehicle id="321" depart="321.00">
        <route edges="7:5 5:3 3:18 18:19"/>
    </vehicle>
    <vehicle id="322" depart="322.00">
        <route edges="11:10 10:0 0:1 1:2 2:3 3:5"/>
    </vehicle>
    <vehicle id="323" depart="323.00">
        <route edges="19:18 18:3 3:5 5:7"/>
    </vehicle>
    <vehicle id="324" depart="324.00">
        <route edges="16:3 3:2 2:1 1:0 0:8 8:9"/>
    </vehicle>
    <vehicle id="326" depart="326.00">
        <route edges="1:2 2:3"/>
    </vehicle>
    <vehicle id="328" depart="328.00">
        <route edges="11:10 10:0 0:1 1:2"/>
    </vehicle>
    <vehicle id="332" depart="332.00">
        <route edges="1:2 2:3 3:5"/>
    </vehicle>
    <vehicle id="336" depart="336.00">
        <route edges="15:14 14:2 2:3 3:5 5:7"/>
    </vehicle>
    <vehicle id="337" depart="337.00">
        <route edges="17:16 16:3 3:18 18:19"/>
    </vehicle>
    <vehicle id="343" depart="343.00">
        <route edges="12:1 1:2 2:14 14:15"/>
    </vehicle>
    <vehicle id="344" depart="344.00">
        <route edges="5:3 3:2 2:1 1:0 0:4 4:6"/>
    </vehicle>
    <vehicle id="345" depart="345.00">
        <route edges="5:3 3:18"/>
    </vehicle>
    <vehicle id="346" depart="346.00">
        <route edges="11:10 10:0 0:4 4:6"/>
    </vehicle>
    <vehicle id="347" depart="347.00">
        <route edges="7:5 5:3 3:2 2:1 1:0 0:4 4:6"/>
    </vehicle>
    <vehicle id="351" depart="351.00">
        <route edges="7:5 5:3 3:16 16:17"/>
    </vehicle>
    <vehicle id="352" depart="352.00">
        <route edges="7:5 5:3 3:2 2:1 1:0 0:8 8:9"/>
    </vehicle>
    <vehicle id="354" depart="354.00">
        <route edges="4:0 0:8 8:9"/>
    </vehicle>
    <vehicle id="355" depart="355.00">
        <route edges="16:3 3:2 2:1 1:0 0:4 4:6"/>
    </vehicle>
    <vehicle id="357" depart="357.00">
        <route edges="19:18 18:3 3:2 2:1 1:0 0:4 4:6"/>
    </vehicle>
    <vehicle id="358" depart="358.00">
        <route edges="9:8 8:0 0:1 1:2 2:3 3:5 5:7"/>
    </vehicle>
    <vehicle id="359" depart="359.00">
        <route edges="10:0 0:1 1:2 2:14 14:15"/>
    </vehicle>
    <vehicle id="361" depart="361.00">
        <route edges="7:5 5:3 3:2 2:1 1:0 0:10 10:11"/>
    </vehicle>
    <vehicle id="362" depart="362.00">
        <route edges="8:0 0:1 1:2 2:3 3:5 5:7"/>
    </vehicle>
    <vehicle id="364" depart="364.00">
        <route edges="19:18 18:3 3:2 2:1 1:12"/>
    </vehicle>
    <vehicle id="365" depart="365.00">
        <route edges="18:3 3:2 2:1 1:0 0:4"/>
    </vehicle>
    <vehicle id="366" depart="366.00">
        <route edges="0:1 1:2 2:3 3:5 5:7"/>
    </vehicle>
    <vehicle id="367" depart="367.00">
        <route edges="11:10 10:0 0:4 4:6"/>
    </vehicle>
    <vehicle id="369" depart="369.00">
        <route edges="7:5 5:3 3:2 2:1 1:0"/>
    </vehicle>
    <vehicle id="370" depart="370.00">
        <route edges="19:18 18:3 3:2 2:1 1:12 12:13"/>
    </vehicle>
    <vehicle id="376" depart="376.00">
        <route edges="5:3 3:2 2:1 1:12 12:13"/>
    </vehicle>
    <vehicle id="377" depart="377.00">
        <route edges="0:1 1:2 2:3 3:16 16:17"/>
    </vehicle>
    <vehicle id="378" depart="378.00">
        <route edges="6:4 4:0 0:8 8:9"/>
    </vehicle>
    <vehicle id="379" depart="379.00">
        <route edges="6:4 4:0 0:1 1:2 2:3 3:5"/>
    </vehicle>
    <vehicle id="381" depart="381.00">
        <route edges="6:4 4:0 0:1 1:2 2:14 14:15"/>
    </vehicle>
    <vehicle id="382" depart="382.00">
        <route edges="1:12 12:13"/>
    </vehicle>
    <vehicle id="384" depart="384.00">
        <route edges="7:5 5:3 3:2 2:1 1:0 0:4 4:6"/>
    </vehicle>
    <vehicle id="387" depart="387.00">
        <route edges="12:1 1:0 0:4 4:6"/>
    </vehicle>
    <vehicle id="388" depart="388.00">
        <route edges="6:4 4:0 0:10"/>
    </vehicle>
    <vehicle id="389" depart="389.00">
        <route edges="6:4 4:0 0:1 1:2 2:3 3:16 16:17"/>
    </vehicle>
    <vehicle id="390" depart="390.00">
        <route edges="11:10 10:0 0:4 4:6"/>
    </vehicle>
    <vehicle id="393" depart="393.00">
        <route edges="4:0 0:1 1:2 2:3 3:18 18:19"/>
    </vehicle>
    <vehicle id="394" depart="394.00">
        <route edges="13:12 12:1 1:0"/>
    </vehicle>
    <vehicle id="396" depart="396.00">
        <route edges="11:10 10:0 0:8 8:9"/>
    </vehicle>
    <vehicle id="400" depart="400.00">
        <route edges="11:10 10:0 0:1 1:2 2:3 3:5 5:7"/>
    </vehicle>
    <vehicle id="401" depart="401.00">
        <route edges="6:4 4:0 0:1 1:2 2:3 3:18 18:19"/>
    </vehicle>
    <vehicle id="403" depart="403.00">
        <route edges="15:14 14:2 2:3 3:5 5:7"/>
    </vehicle>
    <vehicle id="407" depart="407.00">
        <route edges="6:4 4:0 0:1 1:2 2:3 3:5 5:7"/>
    </vehicle>
    <vehicle id="408" depart="408.00">
        <route edges="18:3 3:5 5:7"/>
    </vehicle>
    <vehicle id="412" depart="412.00">
        <route edges="19:18 18:3 3:2 2:14 14:15"/>
    </vehicle>
    <vehicle id="413" depart="413.00">
        <route edges="2:3 3:5 5:7"/>
    </vehicle>
    <vehicle id="415" depart="415.00">
        <route edges="17:16 16:3 3:2 2:1 1:0 0:8"/>
    </vehicle>
    <vehicle id="416" depart="416.00">
        <route edges="18:3 3:2 2:1 1:0 0:8"/>
    </vehicle>
    <vehicle id="417" depart="417.00">
        <route edges="2:3 3:18"/>
    </vehicle>
    <vehicle id="419" depart="419.00">
        <route edges="14:2 2:3 3:5 5:7"/>
    </vehicle>
    <vehicle id="420" depart="420.00">
        <route edges="0:1 1:2 2:3 3:18 18:19"/>
    </vehicle>
    <vehicle id="424" depart="424.00">
        <route edges="4:0 0:1 1:2 2:3 3:5 5:7"/>
    </vehicle>
    <vehicle id="430" depart="430.00">
        <route edges="11:10 10:0 0:4 4:6"/>
    </vehicle>
    <vehicle id="432" depart="432.00">
        <route edges="7:5 5:3 3:2 2:14 14:15"/>
    </vehicle>
    <vehicle id="433" depart="433.00">
        <route edges="0:8 8:9"/>
    </vehicle>
    <vehicle id="434" depart="434.00">
        <route edges="4:0 0:1 1:2 2:3 3:18 18:19"/>
    </vehicle>
    <vehicle id="435" depart="435.00">
        <route edges="1:2 2:3"/>
    </vehicle>
    <vehicle id="436" depart="436.00">
        <route edges="9:8 8:0 0:1 1:2 2:3 3:5 5:7"/>
    </vehicle>
    <vehicle id="437" depart="437.00">
        <route edges="6:4 4:0 0:1 1:12 12:13"/>
    </vehicle>
    <vehicle id="438" depart="438.00">
        <route edges="2:3 3:16 16:17"/>
    </vehicle>
    <vehicle id="440" depart="440.00">
        <route edges="15:14 14:2 2:3 3:18 18:19"/>
    </vehicle>
    <vehicle id="441" depart="441.00">
        <route edges="6:4 4:0 0:1 1:2 2:3 3:18"/>
    </vehicle>
    <vehicle id="446" depart="446.00">
        <route edges="6:4 4:0 0:10 10:11"/>
    </vehicle>
    <vehicle id="447" depart="447.00">
        <route edges="12:1 1:0 0:4 4:6"/>
    </vehicle>
    <vehicle id="448" depart="448.00">
        <route edges="4:0 0:1 1:2 2:3 3:16 16:17"/>
    </vehicle>
    <vehicle id="453" depart="453.00">
        <route edges="7:5 5:3 3:2 2:1 1:0 0:4 4:6"/>
    </vehicle>
    <vehicle id="454" depart="454.00">
        <route edges="13:12 12:1 1:0 0:8 8:9"/>
    </vehicle>
    <vehicle id="455" depart="455.00">
        <route edges="17:16 16:3 3:2 2:1"/>
    </vehicle>
    <vehicle id="459" depart="459.00">
        <route edges="0:1 1:2 2:3 3:16 16:17"/>
    </vehicle>
    <vehicle id="460" depart="460.00">
        <route edges="15:14 14:2 2:3 3:16 16:17"/>
    </vehicle>
    <vehicle id="461" depart="461.00">
        <route edges="11:10 10:0 0:1 1:2 2:3 3:18"/>
    </vehicle>
    <vehicle id="462" depart="462.00">
        <route edges="6:4 4:0 0:1 1:2 2:3 3:18 18:19"/>
    </vehicle>
    <vehicle id="463" depart="463.00">
        <route edges="7:5 5:3 3:16"/>
    </vehicle>
    <vehicle id="466" depart="466.00">
        <route edges="15:14 14:2 2:3 3:5 5:7"/>
    </vehicle>
    <vehicle id="471" depart="471.00">
        <route edges="11:10 10:0 0:4"/>
    </vehicle>
    <vehicle id="476" depart="476.00">
        <route edges="15:14 14:2 2:3 3:16 16:17"/>
    </vehicle>
    <vehicle id="477" depart="477.00">
        <route edges="7:5 5:3 3:2 2:1 1:0 0:8 8:9"/>
    </vehicle>
    <vehicle id="478" depart="478.00">
        <route edges="17:16 16:3 3:2"/>
    </vehicle>
    <vehicle id="479" depart="479.00">
        <route edges="16:3 3:2 2:14 14:15"/>
    </vehicle>
    <vehicle id="480" depart="480.00">
        <route edges="6:4 4:0 0:10 10:11"/>
    </vehicle>
    <vehicle id="482" depart="482.00">
        <route edges="13:12 12:1 1:2 2:3 3:5"/>
    </vehicle>
    <vehicle id="483" depart="483.00">
        <route edges="17:16 16:3 3:2 2:1 1:0"/>
    </vehicle>
    <vehicle id="485" depart="485.00">
        <route edges="17:16 16:3 3:18 18:19"/>
    </vehicle>
    <vehicle id="486" depart="486.00">
        <route edges="6:4 4:0 0:1 1:2 2:3 3:5"/>
    </vehicle>
    <vehicle id="489" depart="489.00">
        <route edges="7:5 5:3 3:2 2:1 1:0"/>
    </vehicle>
    <vehicle id="490" depart="490.00">
        <route edges="1:0 0:4 4:6"/>
    </vehicle>
    <vehicle id="492" depart="492.00">
        <route edges="13:12 12:1 1:2 2:3 3:5 5:7"/>
    </vehicle>
    <vehicle id="497" depart="497.00">
        <route edges="2:3 3:16 16:17"/>
    </vehicle>
    <vehicle id="498" depart="498.00">
        <route edges="15:14 14:2 2:3 3:16 16:17"/>
    </vehicle>
    <vehicle id="499" depart="499.00">
        <route edges="2:1 1:0"/>
    </vehicle>
    <vehicle id="501" depart="501.00">
        <route edges="6:4 4:0 0:1 1:12 12:13"/>
    </vehicle>
    <vehicle id="502" depart="502.00">
        <route edges="14:2 2:1 1:12"/>
    </vehicle>
    <vehicle id="503" depart="503.00">
        <route edges="6:4 4:0 0:1 1:2 2:3 3:18 18:19"/>
    </vehicle>
    <vehicle id="504" depart="504.00">
        <route edges="4:0 0:1 1:2 2:3 3:5 5:7"/>
    </vehicle>
    <vehicle id="505" depart="505.00">
        <route edges="9:8 8:0 0:1"/>
    </vehicle>
    <vehicle id="506" depart="506.00">
        <route edges="6:4 4:0"/>
    </vehicle>
    <vehicle id="507" depart="507.00">
        <route edges="7:5 5:3 3:2"/>
    </vehicle>
    <vehicle id="512" depart="512.00">
        <route edges="15:14 14:2 2:1 1:0 0:4 4:6"/>
    </vehicle>
    <vehicle id="513" depart="513.00">
        <route edges="4:0 0:1 1:2 2:14"/>
    </vehicle>
    <vehicle id="514" depart="514.00">
        <route edges="11:10 10:0 0:1 1:2 2:3 3:5 5:7"/>
    </vehicle>
    <vehicle id="517" depart="517.00">
        <route edges="7:5 5:3 3:2 2:14"/>
    </vehicle>
    <vehicle id="523" depart="523.00">
        <route edges="17:16 16:3 3:2"/>
    </vehicle>
    <vehicle id="526" depart="526.00">
        <route edges="7:5 5:3 3:18 18:19"/>
    </vehicle>
    <vehicle id="528" depart="528.00">
        <route edges="19:18 18:3 3:16 16:17"/>
    </vehicle>
    <vehicle id="531" depart="531.00">
        <route edges="17:16 16:3 3:2 2:1 1:0 0:8 8:9"/>
    </vehicle>
    <vehicle id="532" depart="532.00">
        <route edges="18:3 3:5 5:7"/>
    </vehicle>
    <vehicle id="534" depart="534.00">
        <route edges="3:2 2:1 1:0"/>
    </vehicle>
    <vehicle id="537" depart="537.00">
        <route edges="15:14 14:2 2:1 1:0 0:10"/>
    </vehicle>
    <vehicle id="539" depart="539.00">
        <route edges="13:12 12:1 1:2 2:3 3:5 5:7"/>
    </vehicle>
    <vehicle id="541" depart="541.00">
        <route edges="19:18 18:3 3:5"/>
    </vehicle>
    <vehicle id="543" depart="543.00">
        <route edges="12:1 1:2 2:14 14:15"/>
    </vehicle>
    <vehicle id="544" depart="544.00">
        <route edges="0:1 1:2 2:3 3:18 18:19"/>
    </vehicle>
    <vehicle id="546" depart="546.00">
        <route edges="7:5 5:3 3:18 18:19"/>
    </vehicle>
    <vehicle id="551" depart="551.00">
        <route edges="19:18 18:3 3:2 2:1 1:0 0:4 4:6"/>
    </vehicle>
    <vehicle id="553" depart="553.00">
        <route edges="13:12 12:1 1:0 0:8"/>
    </vehicle>
    <vehicle id="554" depart="554.00">
        <route edges="17:16 16:3 3:2 2:1 1:0 0:10 10:11"/>
    </vehicle>
    <vehicle id="556" depart="556.00">
        <route edges="6:4 4:0 0:1 1:2 2:3 3:16"/>
    </vehicle>
    <vehicle id="557" depart="557.00">
        <route edges="0:4 4:6"/>
    </vehicle>
    <vehicle id="559" depart="559.00">
        <route edges="5:3 3:2 2:1 1:0 0:8 8:9"/>
    </vehicle>
    <vehicle id="560" depart="560.00">
        <route edges="17:16 16:3 3:2 2:1 1:0 0:10 10:11"/>
    </vehicle>
    <vehicle id="561" depart="561.00">
        <route edges="17:16 16:3 3:2 2:1 1:0 0:8 8:9"/>
    </vehicle>
    <vehicle id="564" depart="564.00">
        <route edges="6:4 4:0 0:1 1:2 2:3 3:5 5:7"/>
    </vehicle>
    <vehicle id="567" depart="567.00">
        <route edges="11:10 10:0 0:1 1:2 2:3 3:18 18:19"/>
    </vehicle>
    <vehicle id="568" depart="568.00">
        <route edges="7:5 5:3 3:2 2:1 1:0 0:4 4:6"/>