<?xml version="1.0" encoding="UTF-8"?>

<!-- generated on Thu Oct 23 22:34:52 2014 by SUMO duarouter Version 0.18.0
<?xml version="1.0" encoding="UTF-8"?>

<configuration xmlns:xsi="http://www.w3.org/2001/XMLSchema-instance" xsi:noNamespaceSchemaLocation="http://sumo.sf.net/xsd/duarouterConfiguration.xsd">

    <input>
        <net-file value="corridor.net.xml"/>
        <trip-files value="experimentos/corridor.p1.0.8.trips.xml"/>
    </input>

    <output>
        <output-file value="experimentos/corridor.p1.0.8.rou.xml"/>
    </output>

    <processing>
        <ignore-errors value="true"/>
    </processing>

    <random_number>
        <random value="true"/>
    </random_number>

</configuration>
-->

<routes xmlns:xsi="http://www.w3.org/2001/XMLSchema-instance" xsi:noNamespaceSchemaLocation="http://sumo.sf.net/xsd/routes_file.xsd">
    <vehicle id="2" depart="2.00">
        <route edges="7:5 5:3 3:2 2:1 1:0 0:8 8:9"/>
    </vehicle>
    <vehicle id="4" depart="4.00">
        <route edges="3:2 2:1 1:0 0:8 8:9"/>
    </vehicle>
    <vehicle id="5" depart="5.00">
        <route edges="6:4 4:0 0:1 1:2 2:3 3:5 5:7"/>
    </vehicle>
    <vehicle id="6" depart="6.00">
        <route edges="19:18 18:3 3:2 2:1 1:0 0:4 4:6"/>
    </vehicle>
    <vehicle id="10" depart="10.00">
        <route edges="11:10 10:0 0:8 8:9"/>
    </vehicle>
    <vehicle id="11" depart="11.00">
        <route edges="6:4 4:0 0:1 1:12 12:13"/>
    </vehicle>
    <vehicle id="16" depart="16.00">
        <route edges="3:2"/>
    </vehicle>
    <vehicle id="18" depart="18.00">
        <route edges="7:5 5:3 3:2 2:1 1:0 0:4 4:6"/>
    </vehicle>
    <vehicle id="19" depart="19.00">
        <route edges="5:3 3:2 2:1 1:12"/>
    </vehicle>
    <vehicle id="21" depart="21.00">
        <route edges="11:10 10:0 0:4 4:6"/>
    </vehicle>
    <vehicle id="22" depart="22.00">
        <route edges="6:4 4:0"/>
    </vehicle>
    <vehicle id="25" depart="25.00">
        <route edges="10:0 0:1 1:2 2:3 3:18"/>
    </vehicle>
    <vehicle id="26" depart="26.00">
        <route edges="14:2 2:3 3:5 5:7"/>
    </vehicle>
    <vehicle id="27" depart="27.00">
        <route edges="9:8 8:0 0:4 4:6"/>
    </vehicle>
    <vehicle id="30" depart="30.00">
        <route edges="7:5 5:3 3:2 2:1 1:0 0:8 8:9"/>
    </vehicle>
    <vehicle id="33" depart="33.00">
        <route edges="6:4 4:0"/>
    </vehicle>
    <vehicle id="35" depart="35.00">
        <route edges="15:14 14:2 2:1 1:12"/>
    </vehicle>
    <vehicle id="38" depart="38.00">
        <route edges="0:4 4:6"/>
    </vehicle>
    <vehicle id="39" depart="39.00">
        <route edges="3:2 2:14"/>
    </vehicle>
    <vehicle id="40" depart="40.00">
        <route edges="14:2 2:3 3:5"/>
    </vehicle>
    <vehicle id="41" depart="41.00">
        <route edges="7:5 5:3"/>
    </vehicle>
    <vehicle id="42" depart="42.00">
        <route edges="17:16 16:3 3:2 2:1 1:0 0:4 4:6"/>
    </vehicle>
    <vehicle id="43" depart="43.00">
        <route edges="5:3 3:2 2:14"/>
    </vehicle>
    <vehicle id="44" depart="44.00">
        <route edges="6:4 4:0 0:10 10:11"/>
    </vehicle>
    <vehicle id="50" depart="50.00">
        <route edges="6:4 4:0 0:1 1:2 2:3 3:18"/>
    </vehicle>
    <vehicle id="51" depart="51.00">
        <route edges="18:3 3:2 2:1"/>
    </vehicle>
    <vehicle id="52" depart="52.00">
        <route edges="7:5 5:3 3:2 2:1 1:12"/>
    </vehicle>
    <vehicle id="53" depart="53.00">
        <route edges="19:18 18:3 3:2 2:14 14:15"/>
    </vehicle>
    <vehicle id="54" depart="54.00">
        <route edges="6:4 4:0 0:10 10:11"/>
    </vehicle>
    <vehicle id="55" depart="55.00">
        <route edges="6:4 4:0 0:1 1:12 12:13"/>
    </vehicle>
    <vehicle id="56" depart="56.00">
        <route edges="15:14 14:2 2:3 3:16 16:17"/>
    </vehicle>
    <vehicle id="57" depart="57.00">
        <route edges="0:1 1:2 2:3 3:5"/>
    </vehicle>
    <vehicle id="60" depart="60.00">
        <route edges="7:5 5:3 3:16 16:17"/>
    </vehicle>
    <vehicle id="61" depart="61.00">
        <route edges="5:3 3:2"/>
    </vehicle>
    <vehicle id="63" depart="63.00">
        <route edges="9:8 8:0 0:1 1:2 2:3"/>
    </vehicle>
    <vehicle id="66" depart="66.00">
        <route edges="13:12 12:1 1:0 0:4"/>
    </vehicle>
    <vehicle id="67" depart="67.00">
        <route edges="9:8 8:0 0:4 4:6"/>
    </vehicle>
    <vehicle id="69" depart="69.00">
        <route edges="1:2 2:3"/>
    </vehicle>
    <vehicle id="73" depart="73.00">
        <route edges="19:18 18:3 3:2 2:14 14:15"/>
    </vehicle>
    <vehicle id="75" depart="75.00">
        <route edges="5:3 3:2 2:14"/>
    </vehicle>
    <vehicle id="77" depart="77.00">
        <route edges="7:5 5:3 3:2 2:1 1:0 0:10 10:11"/>
    </vehicle>
    <vehicle id="80" depart="80.00">
        <route edges="19:18 18:3 3:5 5:7"/>
    </vehicle>
    <vehicle id="82" depart="82.00">
        <route edges="7:5 5:3 3:2 2:1 1:0"/>
    </vehicle>
    <vehicle id="83" depart="83.00">
        <route edges="7:5 5:3 3:16"/>
    </vehicle>
    <vehicle id="84" depart="84.00">
        <route edges="7:5 5:3 3:18"/>
    </vehicle>
    <vehicle id="85" depart="85.00">
        <route edges="7:5 5:3 3:2 2:1 1:0 0:8 8:9"/>
    </vehicle>
    <vehicle id="88" depart="88.00">
        <route edges="12:1 1:2 2:3 3:18 18:19"/>
    </vehicle>
    <vehicle id="89" depart="89.00">
        <route edges="13:12 12:1 1:0 0:4 4:6"/>
    </vehicle>
    <vehicle id="92" depart="92.00">
        <route edges="9:8 8:0 0:1 1:2 2:3"/>
    </vehicle>
    <vehicle id="93" depart="93.00">
        <route edges="8:0 0:1 1:2 2:3 3:18 18:19"/>
    </vehicle>
    <vehicle id="95" depart="95.00">
        <route edges="13:12 12:1 1:0 0:4 4:6"/>
    </vehicle>
    <vehicle id="98" depart="98.00">
        <route edges="9:8 8:0 0:10 10:11"/>
    </vehicle>
    <vehicle id="103" depart="103.00">
        <route edges="12:1 1:2 2:3 3:5"/>
    </vehicle>
    <vehicle id="104" depart="104.00">
        <route edges="6:4 4:0"/>
    </vehicle>
    <vehicle id="106" depart="106.00">
        <route edges="17:16 16:3 3:2 2:14 14:15"/>
    </vehicle>
    <vehicle id="107" depart="107.00">
        <route edges="7:5 5:3 3:2 2:14 14:15"/>
    </vehicle>
    <vehicle id="108" depart="108.00">
        <route edges="6:4 4:0 0:8 8:9"/>
    </vehicle>
    <vehicle id="111" depart="111.00">
        <route edges="19:18 18:3 3:2 2:1 1:0 0:4 4:6"/>
    </vehicle>
    <vehicle id="113" depart="113.00">
        <route edges="4:0 0:1 1:12 12:13"/>
    </vehicle>
    <vehicle id="114" depart="114.00">
        <route edges="11:10 10:0 0:1 1:2 2:14 14:15"/>
    </vehicle>
    <vehicle id="118" depart="118.00">
        <route edges="15:14 14:2 2:1 1:0 0:10 10:11"/>
    </vehicle>
    <vehicle id="120" depart="120.00">
        <route edges="10:0"/>
    </vehicle>
    <vehicle id="122" depart="122.00">
        <route edges="0:4 4:6"/>
    </vehicle>
    <vehicle id="123" depart="123.00">
        <route edges="11:10 10:0 0:1 1:2 2:3 3:5 5:7"/>
    </vehicle>
    <vehicle id="124" depart="124.00">
        <route edges="6:4 4:0 0:8 8:9"/>
    </vehicle>
    <vehicle id="126" depart="126.00">
        <route edges="11:10 10:0 0:1 1:2"/>
    </vehicle>
    <vehicle id="128" depart="128.00">
        <route edges="1:0 0:4 4:6"/>
    </vehicle>
    <vehicle id="129" depart="129.00">
        <route edges="19:18 18:3 3:5 5:7"/>
    </vehicle>
    <vehicle id="130" depart="130.00">
        <route edges="3:2 2:1 1:0 0:4 4:6"/>
    </vehicle>
    <vehicle id="131" depart="131.00">
        <route edges="3:5 5:7"/>
    </vehicle>
    <vehicle id="134" depart="134.00">
        <route edges="10:0 0:1 1:12 12:13"/>
    </vehicle>
    <vehicle id="135" depart="135.00">
        <route edges="0:1 1:2 2:3 3:5 5:7"/>
    </vehicle>
    <vehicle id="136" depart="136.00">
        <route edges="6:4 4:0 0:1 1:2 2:3 3:5 5:7"/>
    </vehicle>
    <vehicle id="137" depart="137.00">
        <route edges="5:3"/>
    </vehicle>
    <vehicle id="139" depart="139.00">
        <route edges="5:3 3:2 2:1 1:0 0:4 4:6"/>
    </vehicle>
    <vehicle id="143" depart="143.00">
        <route edges="4:0 0:1 1:2 2:14 14:15"/>
    </vehicle>
    <vehicle id="145" depart="145.00">
        <route edges="9:8 8:0"/>
    </vehicle>
    <vehicle id="146" depart="146.00">
        <route edges="17:16 16:3 3:2 2:14 14:15"/>
    </vehicle>
    <vehicle id="147" depart="147.00">
        <route edges="0:1 1:2"/>
    </vehicle>
    <vehicle id="150" depart="150.00">
        <route edges="4:0 0:1 1:2 2:3 3:16 16:17"/>
    </vehicle>
    <vehicle id="151" depart="151.00">
        <route edges="17:16 16:3 3:2 2:1 1:0"/>
    </vehicle>
    <vehicle id="154" depart="154.00">
        <route edges="18:3 3:5 5:7"/>
    </vehicle>
    <vehicle id="155" depart="155.00">
        <route edges="13:12 12:1 1:0"/>
    </vehicle>
    <vehicle id="156" depart="156.00">
        <route edges="8:0 0:1 1:12"/>
    </vehicle>
    <vehicle id="157" depart="157.00">
        <route edges="13:12 12:1 1:2 2:3 3:16 16:17"/>
    </vehicle>
    <vehicle id="158" depart="158.00">
        <route edges="14:2 2:1 1:0 0:4 4:6"/>
    </vehicle>
    <vehicle id="161" depart="161.00">
        <route edges="13:12 12:1 1:0 0:4 4:6"/>
    </vehicle>
    <vehicle id="164" depart="164.00">
        <route edges="7:5 5:3 3:2 2:1 1:0 0:8"/>
    </vehicle>
    <vehicle id="165" depart="165.00">
        <route edges="15:14 14:2 2:3 3:18 18:19"/>
    </vehicle>
    <vehicle id="166" depart="166.00">
        <route edges="7:5 5:3 3:2 2:1 1:12 12:13"/>
    </vehicle>
    <vehicle id="168" depart="168.00">
        <route edges="7:5 5:3 3:2 2:1 1:12 12:13"/>
    </vehicle>
    <vehicle id="169" depart="169.00">
        <route edges="19:18 18:3 3:2 2:1"/>
    </vehicle>
    <vehicle id="170" depart="170.00">
        <route edges="15:14 14:2 2:3 3:5 5:7"/>
    </vehicle>
    <vehicle id="171" depart="171.00">
        <route edges="13:12 12:1 1:2 2:3"/>
    </vehicle>
    <vehicle id="180" depart="180.00">
        <route edges="16:3 3:5 5:7"/>
    </vehicle>
    <vehicle id="184" depart="184.00">
        <route edges="2:1 1:0 0:8 8:9"/>
    </vehicle>
    <vehicle id="185" depart="185.00">
        <route edges="6:4 4:0 0:1 1:2 2:3 3:16"/>
    </vehicle>
    <vehicle id="186" depart="186.00">
        <route edges="2:3 3:18 18:19"/>
    </vehicle>
    <vehicle id="187" depart="187.00">
        <route edges="17:16 16:3 3:2 2:1 1:0 0:4 4:6"/>
    </vehicle>
    <vehicle id="188" depart="188.00">
        <route edges="13:12 12:1 1:2 2:14 14:15"/>
    </vehicle>
    <vehicle id="189" depart="189.00">
        <route edges="11:10 10:0 0:1 1:2 2:3 3:5"/>
    </vehicle>
    <vehicle id="190" depart="190.00">
        <route edges="0:1"/>
    </vehicle>
    <vehicle id="191" depart="191.00">
        <route edges="17:16 16:3 3:5 5:7"/>
    </vehicle>
    <vehicle id="198" depart="198.00">
        <route edges="17:16 16:3 3:2 2:1 1:0 0:10 10:11"/>
    </vehicle>
    <vehicle id="201" depart="201.00">
        <route edges="13:12 12:1 1:0 0:4 4:6"/>
    </vehicle>
    <vehicle id="202" depart="202.00">
        <route edges="17:16 16:3 3:2"/>
    </vehicle>
    <vehicle id="203" depart="203.00">
        <route edges="17:16 16:3 3:5 5:7"/>
    </vehicle>
    <vehicle id="204" depart="204.00">
        <route edges="17:16 16:3 3:2 2:1 1:0 0:4 4:6"/>
    </vehicle>
    <vehicle id="205" depart="205.00">
        <route edges="11:10 10:0 0:1 1:2 2:14 14:15"/>
    </vehicle>
    <vehicle id="206" depart="206.00">
        <route edges="15:14 14:2 2:3 3:16 16:17"/>
    </vehicle>
    <vehicle id="208" depart="208.00">
        <route edges="8:0 0:1 1:2 2:14 14:15"/>
    </vehicle>
    <vehicle id="212" depart="212.00">
        <route edges="6:4 4:0 0:1 1:2 2:3 3:5 5:7"/>
    </vehicle>
    <vehicle id="214" depart="214.00">
        <route edges="7:5 5:3 3:2 2:1 1:0 0:10 10:11"/>
    </vehicle>
    <vehicle id="215" depart="215.00">
        <route edges="10:0 0:1 1:2 2:14"/>
    </vehicle>
    <vehicle id="216" depart="216.00">
        <route edges="10:0 0:1 1:12"/>
    </vehicle>
    <vehicle id="217" depart="217.00">
        <route edges="9:8 8:0 0:4 4:6"/>
    </vehicle>
    <vehicle id="218" depart="218.00">
        <route edges="14:2 2:1 1:12"/>
    </vehicle>
    <vehicle id="219" depart="219.00">
        <route edges="18:3 3:16 16:17"/>
    </vehicle>
    <vehicle id="222" depart="222.00">
        <route edges="13:12 12:1"/>
    </vehicle>
    <vehicle id="224" depart="224.00">
        <route edges="11:10 10:0 0:4"/>
    </vehicle>
    <vehicle id="225" depart="225.00">
        <route edges="2:14 14:15"/>
    </vehicle>
    <vehicle id="227" depart="227.00">
        <route edges="6:4 4:0 0:1 1:12 12:13"/>
    </vehicle>
    <vehicle id="228" depart="228.00">
        <route edges="3:2 2:1 1:0 0:8 8:9"/>
    </vehicle>
    <vehicle id="229" depart="229.00">
        <route edges="7:5 5:3 3:2"/>
    </vehicle>
    <vehicle id="233" depart="233.00">
        <route edges="6:4 4:0 0:1 1:2 2:3 3:16"/>
    </vehicle>
    <vehicle id="234" depart="234.00">
        <route edges="3:2 2:1 1:0 0:8"/>
    </vehicle>
    <vehicle id="236" depart="236.00">
        <route edges="6:4 4:0 0:1 1:2 2:14 14:15"/>
    </vehicle>
    <vehicle id="237" depart="237.00">
        <route edges="4:0 0:10 10:11"/>
    </vehicle>
    <vehicle id="238" depart="238.00">
        <route edges="1:0 0:4 4:6"/>
    </vehicle>
    <vehicle id="240" depart="240.00">
        <route edges="7:5 5:3"/>
    </vehicle>
    <vehicle id="241" depart="241.00">
        <route edges="6:4 4:0 0:1 1:2 2:14 14:15"/>
    </vehicle>
    <vehicle id="243" depart="243.00">
        <route edges="6:4 4:0 0:1 1:2 2:3 3:5 5:7"/>
    </vehicle>
    <vehicle id="245" depart="245.00">
        <route edges="11:10 10:0 0:1 1:12 12:13"/>
    </vehicle>
    <vehicle id="246" depart="246.00">
        <route edges="15:14 14:2 2:3 3:16 16:17"/>
    </vehicle>
    <vehicle id="250" depart="250.00">
        <route edges="3:2 2:1 1:12"/>
    </vehicle>
    <vehicle id="252" depart="252.00">
        <route edges="3:2 2:1 1:0 0:4"/>
    </vehicle>
    <vehicle id="254" depart="254.00">
        <route edges="11:10 10:0 0:1 1:2 2:3 3:5 5:7"/>
    </vehicle>
    <vehicle id="257" depart="257.00">
        <route edges="11:10 10:0 0:1 1:2 2:3 3:5 5:7"/>
    </vehicle>
    <vehicle id="263" depart="263.00">
        <route edges="17:16 16:3 3:2 2:14"/>
    </vehicle>
    <vehicle id="264" depart="264.00">
        <route edges="2:1 1:12 12:13"/>
    </vehicle>
    <vehicle id="265" depart="265.00">
        <route edges="7:5 5:3 3:2 2:14"/>
    </vehicle>
    <vehicle id="267" depart="267.00">
        <route edges="0:1 1:12 12:13"/>
    </vehicle>
    <vehicle id="270" depart="270.00">
        <route edges="7:5 5:3 3:2 2:1 1:0 0:4 4:6"/>
    </vehicle>
    <vehicle id="271" depart="271.00">
        <route edges="13:12 12:1 1:0 0:10"/>
    </vehicle>
    <vehicle id="272" depart="272.00">
        <route edges="11:10 10:0 0:1 1:2 2:3 3:5 5:7"/>
    </vehicle>
    <vehicle id="279" depart="279.00">
        <route edges="5:3 3:2 2:1 1:0 0:4 4:6"/>
    </vehicle>
    <vehicle id="280" depart="280.00">
        <route edges="19:18 18:3 3:2 2:1 1:0 0:8 8:9"/>
    </vehicle>
    <vehicle id="283" depart="283.00">
        <route edges="10:0 0:4 4:6"/>
    </vehicle>
    <vehicle id="285" depart="285.00">
        <route edges="9:8 8:0 0:4 4:6"/>
    </vehicle>
    <vehicle id="287" depart="287.00">
        <route edges="0:1 1:2 2:14"/>
    </vehicle>
    <vehicle id="288" depart="288.00">
        <route edges="6:4 4:0 0:1 1:2 2:3 3:5"/>
    </vehicle>
    <vehicle id="290" depart="290.00">
        <route edges="17:16 16:3 3:2 2:1 1:0 0:8 8:9"/>
    </vehicle>
    <vehicle id="291" depart="291.00">
        <route edges="5:3 3:2 2:1 1:0 0:8 8:9"/>
    </vehicle>
    <vehicle id="292" depart="292.00">
        <route edges="17:16 16:3 3:18 18:19"/>
    </vehicle>
    <vehicle id="293" depart="293.00">
        <route edges="1:2"/>
    </vehicle>
    <vehicle id="294" depart="294.00">
        <route edges="19:18 18:3 3:2 2:14 14:15"/>
    </vehicle>
    <vehicle id="295" depart="295.00">
        <route edges="7:5 5:3 3:2"/>
    </vehicle>
    <vehicle id="296" depart="296.00">
        <route edges="10:0 0:4 4:6"/>
    </vehicle>
    <vehicle id="298" depart="298.00">
        <route edges="11:10 10:0 0:1 1:2 2:3 3:16 16:17"/>
    </vehicle>
    <vehicle id="299" depart="299.00">
        <route edges="19:18 18:3 3:2 2:1 1:0 0:4 4:6"/>
    </vehicle>
    <vehicle id="300" depart="300.00">
        <route edges="7:5 5:3 3:2 2:1 1:0 0:4 4:6"/>
    </vehicle>
    <vehicle id="304" depart="304.00">
        <route edges="17:16 16:3 3:18 18:19"/>
    </vehicle>
    <vehicle id="306" depart="306.00">
        <route edges="6:4 4:0 0:1 1:2 2:14 14:15"/>
    </vehicle>
    <vehicle id="307" depart="307.00">
        <route edges="7:5 5:3 3:2 2:14 14:15"/>
    </vehicle>
    <vehicle id="310" depart="310.00">
        <route edges="9:8 8:0 0:1 1:2"/>
    </vehicle>
    <vehicle id="316" depart="316.00">
        <route edges="3:2 2:1 1:0 0:10 10:11"/>
    </vehicle>
    <vehicle id="319" depart="319.00">
        <route edges="2:3 3:5"/>
    </vehicle>
    <vehicle id="320" depart="320.00">
        <route edges="12:1 1:2 2:14 14:15"/>
    </vehicle>
    <vehicle id="321" depart="321.00">
        <route edges="12:1 1:2 2:3 3:16"/>
    </vehicle>
    <vehicle id="322" depart="322.00">
        <route edges="5:3 3:2 2:1"/>
    </vehicle>
    <vehicle id="328" depart="328.00">
        <route edges="9:8 8:0 0:1 1:2 2:14"/>
    </vehicle>
    <vehicle id="331" depart="331.00">
        <route edges="13:12 12:1 1:2 2:3 3:5 5:7"/>
    </vehicle>
    <vehicle id="333" depart="333.00">
        <route edges="2:1 1:0 0:4 4:6"/>
    </vehicle>
    <vehicle id="334" depart="334.00">
        <route edges="4:0 0:10"/>
    </vehicle>
    <vehicle id="335" depart="335.00">
        <route edges="10:0 0:4 4:6"/>
    </vehicle>
    <vehicle id="336" depart="336.00">
        <route edges="17:16 16:3 3:2 2:1 1:0 0:4 4:6"/>
    </vehicle>
    <vehicle id="338" depart="338.00">
        <route edges="17:16 16:3 3:2 2:1 1:0 0:10 10:11"/>
    </vehicle>
    <vehicle id="339" depart="339.00">
        <route edges="3:18 18:19"/>
    </vehicle>
    <vehicle id="340" depart="340.00">
        <route edges="6:4 4:0 0:1 1:2 2:14 14:15"/>
    </vehicle>
    <vehicle id="341" depart="341.00">
        <route edges="19:18 18:3 3:2 2:1 1:0 0:4 4:6"/>
    </vehicle>
    <vehicle id="342" depart="342.00">
        <route edges="2:1 1:0 0:10 10:11"/>
    </vehicle>
    <vehicle id="344" depart="344.00">
        <route edges="6:4 4:0 0:1 1:2 2:14 14:15"/>
    </vehicle>
    <vehicle id="345" depart="345.00">
        <route edges="1:2 2:3"/>
    </vehicle>
    <vehicle id="346" depart="346.00">
        <route edges="7:5 5:3 3:2 2:14 14:15"/>
    </vehicle>
    <vehicle id="348" depart="348.00">
        <route edges="8:0 0:1"/>
    </vehicle>
    <vehicle id="349" depart="349.00">
        <route edges="19:18 18:3 3:5 5:7"/>
    </vehicle>
    <vehicle id="351" depart="351.00">
        <route edges="0:4"/>
    </vehicle>
    <vehicle id="352" depart="352.00">
        <route edges="2:3 3:18 18:19"/>
    </vehicle>
    <vehicle id="353" depart="353.00">
        <route edges="19:18 18:3 3:2 2:1 1:0 0:10 10:11"/>
    </vehicle>
    <vehicle id="357" depart="357.00">
        <route edges="17:16 16:3 3:2 2:1 1:0 0:4"/>
    </vehicle>
    <vehicle id="358" depart="358.00">
        <route edges="5:3 3:2 2:1 1:0 0:4"/>
    </vehicle>
    <vehicle id="361" depart="361.00">
        <route edges="7:5 5:3 3:2 2:1 1:0 0:10 10:11"/>
    </vehicle>
    <vehicle id="362" depart="362.00">
        <route edges="9:8 8:0 0:1 1:2 2:3"/>
    </vehicle>
    <vehicle id="367" depart="367.00">
        <route edges="7:5 5:3 3:2 2:1 1:0 0:4 4:6"/>
    </vehicle>
    <vehicle id="368" depart="368.00">
        <route edges="6:4 4:0 0:1 1:2"/>
    </vehicle>
    <vehicle id="370" depart="370.00">
        <route edges="15:14 14:2 2:3 3:18 18:19"/>
    </vehicle>
    <vehicle id="372" depart="372.00">
        <route edges="12:1 1:2 2:14 14:15"/>
    </vehicle>
    <vehicle id="374" depart="374.00">
        <route edges="9:8 8:0 0:1 1:2 2:3"/>
    </vehicle>
    <vehicle id="375" depart="375.00">
        <route edges="13:12 12:1 1:0 0:10 10:11"/>
    </vehicle>
    <vehicle id="379" depart="379.00">
        <route edges="8:0 0:1 1:2 2:3 3:18 18:19"/>
    </vehicle>
    <vehicle id="383" depart="383.00">
        <route edges="17:16 16:3 3:2 2:1 1:0 0:4"/>
    </vehicle>
    <vehicle id="384" depart="384.00">
        <route edges="15:14 14:2"/>
    </vehicle>
    <vehicle id="385" depart="385.00">
        <route edges="15:14 14:2 2:3 3:16"/>
    </vehicle>
    <vehicle id="387" depart="387.00">
        <route edges="15:14 14:2 2:1 1:0 0:4 4:6"/>
    </vehicle>
    <vehicle id="388" depart="388.00">
        <route edges="2:1 1:0 0:8 8:9"/>
    </vehicle>
    <vehicle id="389" depart="389.00">
        <route edges="19:18 18:3 3:2 2:14 14:15"/>
    </vehicle>
    <vehicle id="390" depart="390.00">
        <route edges="6:4 4:0"/>
    </vehicle>
    <vehicle id="391" depart="391.00">
        <route edges="5:3 3:18"/>
    </vehicle>
    <vehicle id="392" depart="392.00">
        <route edges="13:12 12:1 1:2 2:3 3:18"/>
    </vehicle>
    <vehicle id="394" depart="394.00">
        <route edges="7:5 5:3 3:2 2:1 1:0 0:4 4:6"/>
    </vehicle>
    <vehicle id="395" depart="395.00">
        <route edges="1:2 2:14 14:15"/>
    </vehicle>
    <vehicle id="396" depart="396.00">
        <route edges="15:14 14:2 2:1 1:0 0:4 4:6"/>
    </vehicle>
    <vehicle id="399" depart="399.00">
        <route edges="19:18 18:3 3:2 2:1 1:12 12:13"/>
    </vehicle>
    <vehicle id="400" depart="400.00">
        <route edges="7:5 5:3 3:2 2:1 1:0 0:10 10:11"/>
    </vehicle>
    <vehicle id="401" depart="401.00">
        <route edges="11:10 10:0 0:4 4:6"/>
    </vehicle>
    <vehicle id="402" depart="402.00">
        <route edges="3:2 2:1 1:0"/>
    </vehicle>
    <vehicle id="403" depart="403.00">
        <route edges="17:16 16:3 3:2 2:1 1:12 12:13"/>
    </vehicle>
    <vehicle id="404" depart="404.00">
        <route edges="7:5 5:3 3:2 2:1 1:0"/>
    </vehicle>
    <vehicle id="407" depart="407.00">
        <route edges="1:0 0:4 4:6"/>
    </vehicle>
    <vehicle id="408" depart="408.00">
        <route edges="6:4 4:0 0:1 1:12"/>
    </vehicle>
    <vehicle id="409" depart="409.00">
        <route edges="7:5 5:3 3:2"/>
    </vehicle>
    <vehicle id="410" depart="410.00">
        <route edges="7:5 5:3 3:2 2:1 1:12"/>
    </vehicle>
    <vehicle id="413" depart="413.00">
        <route edges="17:16 16:3 3:18 18:19"/>
    </vehicle>
    <vehicle id="417" depart="417.00">
        <route edges="17:16 16:3 3:2 2:1 1:0 0:4 4:6"/>
    </vehicle>
    <vehicle id="418" depart="418.00">
        <route edges="13:12 12:1 1:2 2:3 3:16 16:17"/>
    </vehicle>
    <vehicle id="419" depart="419.00">
        <route edges="4:0 0:1 1:2 2:3 3:5"/>
    </vehicle>
    <vehicle id="420" depart="420.00">
        <route edges="1:0 0:8"/>
    </vehicle>
    <vehicle id="422" depart="422.00">
        <route edges="15:14 14:2 2:1 1:0 0:8 8:9"/>
    </vehicle>
    <vehicle id="423" depart="423.00">
        <route edges="11:10 10:0 0:1 1:12 12:13"/>
    </vehicle>
    <vehicle id="425" depart="425.00">
        <route edges="1:2 2:3 3:5 5:7"/>
    </vehicle>
    <vehicle id="427" depart="427.00">
        <route edges="17:16 16:3 3:2 2:1 1:0 0:4 4:6"/>
    </vehicle>
    <vehicle id="430" depart="430.00">
        <route edges="17:16 16:3 3:18 18:19"/>
    </vehicle>
    <vehicle id="431" depart="431.00">
        <route edges="9:8 8:0 0:1 1:2 2:3 3:16 16:17"/>
    </vehicle>
    <vehicle id="432" depart="432.00">
        <route edges="1:0 0:10"/>
    </vehicle>
    <vehicle id="433" depart="433.00">
        <route edges="19:18 18:3 3:2 2:1 1:0 0:4 4:6"/>
    </vehicle>
    <vehicle id="434" depart="434.00">
        <route edges="13:12 12:1 1:2 2:3 3:5"/>
    </vehicle>
    <vehicle id="435" depart="435.00">
        <route edges="17:16 16:3 3:2 2:1 1:0 0:4 4:6"/>
    </vehicle>
    <vehicle id="436" depart="436.00">
        <route edges="9:8 8:0 0:4"/>
    </vehicle>
    <vehicle id="439" depart="439.00">
        <route edges="9:8 8:0"/>
    </vehicle>
    <vehicle id="443" depart="443.00">
        <route edges="1:0 0:8 8:9"/>
    </vehicle>
    <vehicle id="444" depart="444.00">
        <route edges="19:18 18:3 3:2 2:1 1:0 0:4"/>
    </vehicle>
    <vehicle id="445" depart="445.00">
        <route edges="3:2 2:1 1:12 12:13"/>
    </vehicle>
    <vehicle id="448" depart="448.00">
        <route edges="17:16 16:3 3:5 5:7"/>
    </vehicle>
    <vehicle id="449" depart="449.00">
        <route edges="1:0 0:4 4:6"/>
    </vehicle>
    <vehicle id="451" depart="451.00">
        <route edges="9:8 8:0 0:10 10:11"/>
    </vehicle>
    <vehicle id="453" depart="453.00">
        <route edges="7:5 5:3 3:2 2:1 1:12 12:13"/>
    </vehicle>
    <vehicle id="457" depart="457.00">
        <route edges="4:0 0:1 1:2 2:3 3:16 16:17"/>
    </vehicle>
    <vehicle id="458" depart="458.00">
        <route edges="15:14 14:2 2:1 1:0 0:4 4:6"/>
    </vehicle>
    <vehicle id="463" depart="463.00">
        <route edges="16:3 3:2 2:1 1:0 0:8"/>
    </vehicle>
    <vehicle id="464" depart="464.00">
        <route edges="6:4 4:0 0:1 1:12 12:13"/>
    </vehicle>
    <vehicle id="465" depart="465.00">
        <route edges="13:12 12:1 1:2 2:14 14:15"/>
    </vehicle>
    <vehicle id="466" depart="466.00">
        <route edges="6:4 4:0 0:1 1:12 12:13"/>
    </vehicle>
    <vehicle id="467" depart="467.00">
        <route edges="11:10 10:0 0:4 4:6"/>
    </vehicle>
    <vehicle id="468" depart="468.00">
        <route edges="19:18 18:3 3:2 2:1 1:0 0:4 4:6"/>
    </vehicle>
    <vehicle id="469" depart="469.00">
        <route edges="6:4 4:0 0:10 10:11"/>
    </vehicle>
    <vehicle id="470" depart="470.00">
        <route edges="17:16 16:3 3:2 2:1 1:12 12:13"/>
    </vehicle>
    <vehicle id="471" depart="471.00">
        <route edges="1:2 2:14 14:15"/>
    </vehicle>
    <vehicle id="474" depart="474.00">
        <route edges="13:12 12:1 1:2 2:14 14:15"/>
    </vehicle>
    <vehicle id="479" depart="479.00">
        <route edges="7:5 5:3 3:2 2:14 14:15"/>
    </vehicle>
    <vehicle id="481" depart="481.00">
        <route edges="5:3 3:2 2:1 1:0 0:4 4:6"/>
    </vehicle>
    <vehicle id="483" depart="483.00">
        <route edges="17:16 16:3 3:2 2:1 1:12 12:13"/>
    </vehicle>
    <vehicle id="484" depart="484.00">
        <route edges="2:3"/>
    </vehicle>
    <vehicle id="485" depart="485.00">
        <route edges="11:10 10:0 0:8 8:9"/>
    </vehicle>
    <vehicle id="486" depart="486.00">
        <route edges="7:5 5:3 3:2 2:1 1:0 0:8 8:9"/>
    </vehicle>
    <vehicle id="487" depart="487.00">
        <route edges="7:5 5:3 3:16 16:17"/>
    </vehicle>
    <vehicle id="488" depart="488.00">
        <route edges="17:16 16:3 3:2"/>
    </vehicle>
    <vehicle id="489" depart="489.00">
        <route edges="5:3 3:16 16:17"/>
    </vehicle>
    <vehicle id="490" depart="490.00">
        <route edges="15:14 14:2"/>
    </vehicle>
    <vehicle id="491" depart="491.00">
        <route edges="13:12 12:1 1:2 2:3 3:18"/>
    </vehicle>
    <vehicle id="492" depart="492.00">
        <route edges="18:3 3:2 2:1 1:0 0:8"/>
    </vehicle>
    <vehicle id="496" depart="496.00">
        <route edges="3:5 5:7"/>
    </vehicle>
    <vehicle id="501" depart="501.00">
        <route edges="7:5 5:3 3:2 2:1 1:12 12:13"/>
    </vehicle>
    <vehicle id="504" depart="504.00">
        <route edges="14:2 2:1 1:0 0:4 4:6"/>
    </vehicle>
    <vehicle id="511" depart="511.00">
        <route edges="7:5 5:3 3:2 2:1 1:12"/>
    </vehicle>
    <vehicle id="515" depart="515.00">
        <route edges="17:16 16:3 3:2 2:1 1:0 0:4 4:6"/>
    </vehicle>
    <vehicle id="516" depart="516.00">
        <route edges="1:0"/>
    </vehicle>
    <vehicle id="520" depart="520.00">
        <route edges="9:8 8:0 0:1 1:2 2:3 3:5 5:7"/>
    </vehicle>
    <vehicle id="522" depart="522.00">
        <route edges="17:16 16:3 3:2 2:1 1:0 0:4 4:6"/>
    </vehicle>
    <vehicle id="523" depart="523.00">
        <route edges="17:16 16:3 3:18 18:19"/>
    </vehicle>
    <vehicle id="524" depart="524.00">
        <route edges="7:5 5:3 3:2 2:14 14:15"/>
    </vehicle>
    <vehicle id="526" depart="526.00">
        <route edges="9:8 8:0 0:1 1:2 2:3 3:5"/>
    </vehicle>
    <vehicle id="528" depart="528.00">
        <route edges="4:0 0:1 1:2 2:3 3:16 16:17"/>
    </vehicle>
    <vehicle id="533" depart="533.00">
        <route edges="19:18 18:3 3:2 2:1 1:12"/>
    </vehicle>
    <vehicle id="536" depart="536.00">
        <route edges="7:5 5:3 3:16 16:17"/>
    </vehicle>
    <vehicle id="539" depart="539.00">
        <route edges="9:8 8:0 0:1 1:2 2:3 3:5 5:7"/>
    </vehicle>
    <vehicle id="540" depart="540.00">
        <route edges="11:10 10:0 0:1 1:2 2:3 3:18 18:19"/>
    </vehicle>
    <vehicle id="543" depart="543.00">
        <route edges="7:5 5:3 3:2 2:14 14:15"/>
    </vehicle>
    <vehicle id="545" depart="545.00">
        <route edges="18:3 3:2 2:14 14:15"/>
    </vehicle>
    <vehicle id="549" depart="549.00">
        <route edges="15:14 14:2 2:3 3:16 16:17"/>
    </vehicle>
    <vehicle id="551" depart="551.00">
        <route edges="9:8 8:0 0:10 10:11"/>
    </vehicle>
    <vehicle id="553" depart="553.00">
        <route edges="18:3 3:2 2:1 1:0 0:4 4:6"/>
    </vehicle>
    <vehicle id="555" depart="555.00">
        <route edges="11:10 10:0 0:1 1:2 2:3"/>
    </vehicle>
    <vehicle id="556" depart="556.00">
        <route edges="11:10 10:0 0:1 1:12"/>
    </vehicle>
    <vehicle id="558" depart="558.00">